<?xml version="1.0" encoding="UTF-8"?>

<net version="0.13" xmlns:xsi="http://www.w3.org/2001/XMLSchema-instance" xsi:noNamespaceSchemaLocation="http://sumo-sim.org/xsd/net_file.xsd">
    <location netOffset="0.0,0.0" convBoundary="0.00,0.00,665.37,811.53" origBoundary="14.388600,50.068250,14.516399,50.128835" projParameter="+proj=utm +zone=33 +ellps=WGS84 +datum=WGS84 +units=m +no_defs"/>
    <!--<edge id="0" from="start0" to="preparation" priority="7" type="highway.secondary">
        <lane id="0_0" index="0" speed="42" length="16.72" shape="20.25,-800 3.5,-605.0"/>
    </edge>
    <edge id="1" from="start1" to="preparation" priority="7" type="highway.secondary">
        <lane id="1_0" index="0" speed="42" length="16.72" shape="0.0,-800.0 0.0,-605.0"/>
    </edge>
    <edge id="2" from="start2" to="preparation" priority="7" type="highway.secondary">
        <lane id="2_0" index="0" speed="42" length="16.72" shape="-20.25,-800 -3.5,-605.0"/>
    </edge> -->
    <edge id="3" from="preparation" to="center" priority="7" type="highway.secondary">
        <lane id="3_0" index="0" speed="42" length="16.72" shape="3.5,-1000.0 3.5,-2.25"/>
        <lane id="3_1" index="1" speed="42" length="16.72" shape="0.0,-1000.0 0.0,-2.25"/>
        <lane id="3_2" index="2" speed="42" length="16.72" shape="-3.5,-1000.0 -3.5,-2.25"/>-->
    </edge>
    <edge id="4" from="center" to="deadend" priority="7" type="highway.secondary">
        <lane id="4_0" index="0" speed="42" length="16.72" shape="0.0,5.0 0.0,600"/>
    </edge>



    <junction id="center" type="unregulated" x="0.00" y="00.00" incLanes="3_0 3_1 3_2" intLanes="" shape="-4.25,-2.25 4.25,-2.25 0.0,5.0"/>
    <junction id="preparation" type="unregulated" x="0.00" y="-1002.50" incLanes="0_0 1_0 2_0" intLanes="" shape="-4.25,-1005.0 4.25,-1005.0 4.25,-1000.0 -4.25,-1000.0"/>
    <junction id="deadend" type="dead_end" x="0.00" y="600.00" incLanes="4_0" intLanes="" shape=""/>
    <!--<junction id="start0" type="dead_end" x="20.25" y="-700.00" incLanes="0_0" intLanes="" shape=""/>
    <junction id="start1" type="dead_end" x="0.00" y="-700.00" incLanes="1_0" intLanes="" shape=""/>
    <junction id="start2" type="dead_end" x="20.25" y="-700.00" incLanes="2_0" intLanes="" shape=""/> -->

   <!-- <connection from="0" to="3" fromLane="0" toLane="0" dir="s" state="M"/>
    <connection from="1" to="3" fromLane="0" toLane="1" dir="s" state="M"/>
    <connection from="2" to="3" fromLane="0" toLane="2" dir="s" state="M"/> -->

    <connection from="3" to="4" fromLane="0" toLane="0" dir="s" state="M"/>
    <connection from="3" to="4" fromLane="1" toLane="0" dir="s" state="M"/>
    <connection from="3" to="4" fromLane="2" toLane="0" dir="s" state="M"/>-->
</net>
