<?xml version="1.0" encoding="UTF-8"?>

<!-- generated on Fri Apr 10 18:42:01 2015 by SUMO duarouter Version 0.22.0
<?xml version="1.0" encoding="UTF-8"?>

<configuration xmlns:xsi="http://www.w3.org/2001/XMLSchema-instance" xsi:noNamespaceSchemaLocation="http://sumo.dlr.de/xsd/duarouterConfiguration.xsd">

    <input>
        <net-file value="artificialHighway-funnel/artificialHighway-funnel.net.xml"/>
        <flow-files value="artificialHighway-funnel/artificialHighway-funnel.flows.xml"/>
    </input>

    <output>
        <output-file value="artificialHighway-funnel/artificialHighway-funnel.rou.xml"/>
    </output>

    <processing>
        <ignore-errors value="true"/>
        <routing-algorithm value="astar"/>
    </processing>

    <report>
        <no-warnings value="true"/>
    </report>

</configuration>
-->

<routes xmlns:xsi="http://www.w3.org/2001/XMLSchema-instance" xsi:noNamespaceSchemaLocation="http://sumo.dlr.de/xsd/routes_file.xsd">
    <vehicle id="1" depart="0.00">
        <route edges="3 4"/>
    </vehicle>
    <vehicle id="2" depart="6.00">
        <route edges="3 4"/>
    </vehicle>
    <vehicle id="3" depart="10.00">
        <route edges="3 4"/>
    </vehicle>
    <vehicle id="4" depart="12.00">
        <route edges="3 4"/>
    </vehicle>
    <vehicle id="5" depart="15.50">
        <route edges="3 4"/>
    </vehicle>
    <vehicle id="6" depart="18.00">
        <route edges="3 4"/>
    </vehicle>
    <vehicle id="7" depart="20.00">
        <route edges="3 4"/>
    </vehicle>
    <vehicle id="8" depart="21.00">
        <route edges="3 4"/>
    </vehicle>
    <vehicle id="9" depart="24.00">
        <route edges="3 4"/>
    </vehicle>
    <vehicle id="10" depart="26.00">
        <route edges="3 4"/>
    </vehicle>
    <vehicle id="11" depart="26.50">
        <route edges="3 4"/>
    </vehicle>
    <vehicle id="12" depart="30.00">
        <route edges="3 4"/>
    </vehicle>
    <vehicle id="13" depart="32.00">
        <route edges="3 4"/>
    </vehicle>
    <vehicle id="14" depart="32.00">
        <route edges="3 4"/>
    </vehicle>
    <vehicle id="15" depart="36.00">
        <route edges="3 4"/>
    </vehicle>
    <vehicle id="16" depart="37.50">
        <route edges="3 4"/>
    </vehicle>
    <vehicle id="17" depart="38.00">
        <route edges="3 4"/>
    </vehicle>
    <vehicle id="18" depart="42.00">
        <route edges="3 4"/>
    </vehicle>
    <vehicle id="19" depart="43.00">
        <route edges="3 4"/>
    </vehicle>
    <vehicle id="20" depart="44.00">
        <route edges="3 4"/>
    </vehicle>
    <vehicle id="21" depart="48.00">
        <route edges="3 4"/>
    </vehicle>
    <vehicle id="22" depart="48.50">
        <route edges="3 4"/>
    </vehicle>
    <vehicle id="23" depart="50.00">
        <route edges="3 4"/>
    </vehicle>
    <vehicle id="24" depart="54.00">
        <route edges="3 4"/>
    </vehicle>
    <vehicle id="25" depart="54.00">
        <route edges="3 4"/>
    </vehicle>
    <vehicle id="26" depart="56.00">
        <route edges="3 4"/>
    </vehicle>
    <vehicle id="27" depart="59.50">
        <route edges="3 4"/>
    </vehicle>
    <vehicle id="28" depart="60.00">
        <route edges="3 4"/>
    </vehicle>
    <vehicle id="29" depart="62.00">
        <route edges="3 4"/>
    </vehicle>
    <vehicle id="30" depart="65.00">
        <route edges="3 4"/>
    </vehicle>
    <vehicle id="31" depart="66.00">
        <route edges="3 4"/>
    </vehicle>
    <vehicle id="32" depart="68.00">
        <route edges="3 4"/>
    </vehicle>
    <vehicle id="33" depart="70.50">
        <route edges="3 4"/>
    </vehicle>
    <vehicle id="34" depart="72.00">
        <route edges="3 4"/>
    </vehicle>
    <vehicle id="35" depart="74.00">
        <route edges="3 4"/>
    </vehicle>
    <vehicle id="36" depart="76.00">
        <route edges="3 4"/>
    </vehicle>
    <vehicle id="37" depart="78.00">
        <route edges="3 4"/>
    </vehicle>
    <vehicle id="38" depart="80.00">
        <route edges="3 4"/>
    </vehicle>
    <vehicle id="39" depart="81.50">
        <route edges="3 4"/>
    </vehicle>
    <vehicle id="40" depart="84.00">
        <route edges="3 4"/>
    </vehicle>
    <vehicle id="41" depart="86.00">
        <route edges="3 4"/>
    </vehicle>
    <vehicle id="42" depart="87.00">
        <route edges="3 4"/>
    </vehicle>
    <vehicle id="43" depart="90.00">
        <route edges="3 4"/>
    </vehicle>
    <vehicle id="44" depart="92.00">
        <route edges="3 4"/>
    </vehicle>
    <vehicle id="45" depart="92.50">
        <route edges="3 4"/>
    </vehicle>
    <vehicle id="46" depart="96.00">
        <route edges="3 4"/>
    </vehicle>
    <vehicle id="47" depart="98.00">
        <route edges="3 4"/>
    </vehicle>
    <vehicle id="48" depart="98.00">
        <route edges="3 4"/>
    </vehicle>
    <vehicle id="49" depart="102.00">
        <route edges="3 4"/>
    </vehicle>
    <vehicle id="50" depart="103.50">
        <route edges="3 4"/>
    </vehicle>
    <vehicle id="51" depart="104.00">
        <route edges="3 4"/>
    </vehicle>
    <vehicle id="52" depart="108.00">
        <route edges="3 4"/>
    </vehicle>
    <vehicle id="53" depart="109.00">
        <route edges="3 4"/>
    </vehicle>
    <vehicle id="54" depart="110.00">
        <route edges="3 4"/>
    </vehicle>
    <vehicle id="55" depart="114.00">
        <route edges="3 4"/>
    </vehicle>
    <vehicle id="56" depart="114.50">
        <route edges="3 4"/>
    </vehicle>
    <vehicle id="57" depart="116.00">
        <route edges="3 4"/>
    </vehicle>
    <vehicle id="58" depart="120.00">
        <route edges="3 4"/>
    </vehicle>
    <vehicle id="59" depart="122.00">
        <route edges="3 4"/>
    </vehicle>
    <vehicle id="60" depart="126.00">
        <route edges="3 4"/>
    </vehicle>
    <vehicle id="61" depart="128.00">
        <route edges="3 4"/>
    </vehicle>
    <vehicle id="62" depart="132.00">
        <route edges="3 4"/>
    </vehicle>
    <vehicle id="63" depart="134.00">
        <route edges="3 4"/>
    </vehicle>
    <vehicle id="64" depart="138.00">
        <route edges="3 4"/>
    </vehicle>
    <vehicle id="65" depart="144.00">
        <route edges="3 4"/>
    </vehicle>
    <vehicle id="66" depart="150.00">
        <route edges="3 4"/>
    </vehicle>
    <vehicle id="67" depart="156.00">
        <route edges="3 4"/>
    </vehicle>
    <vehicle id="68" depart="162.00">
        <route edges="3 4"/>
    </vehicle>
    <vehicle id="69" depart="168.00">
        <route edges="3 4"/>
    </vehicle>
    <vehicle id="70" depart="174.00">
        <route edges="3 4"/>
    </vehicle>
</routes>
