<?xml version="1.0" encoding="UTF-8"?>

<routes xmlns:xsi="http://www.w3.org/2001/XMLSchema-instance" xsi:noNamespaceSchemaLocation="http://sumo-sim.org/xsd/routes_file.xsd">
<<<<<<< local
    <vehicle id="0" depart="0.0">
        <route edges="0 3 4" />
    </vehicle>
=======
>>>>>>> other
    <vehicle id="1" depart="0.0">
        <route edges="0 3 4" />
    </vehicle>
    <vehicle id="2" depart="0.0">
        <route edges="0 3 4" />
    </vehicle>
    <vehicle id="3" depart="0.0">
        <route edges="0 3 4" />
    </vehicle>
    <vehicle id="4" depart="0.0">
        <route edges="0 3 4" />
    </vehicle>
    <vehicle id="5" depart="0.0">
        <route edges="0 3 4" />
    </vehicle>
    <vehicle id="6" depart="0.0">
        <route edges="0 3 4" />
    </vehicle>
    <vehicle id="7" depart="0.0">
        <route edges="0 3 4" />
    </vehicle>
    <vehicle id="8" depart="0.0">
        <route edges="0 3 4" />
    </vehicle>
    <vehicle id="9" depart="0.0">
        <route edges="0 3 4" />
    </vehicle>

    <vehicle id="20" depart="0.0">
        <route edges="1 3 4" />
    </vehicle>
    <vehicle id="21" depart="0.0">
        <route edges="1 3 4" />
    </vehicle>
    <vehicle id="22" depart="0.0">
        <route edges="1 3 4" />
    </vehicle>
    <vehicle id="23" depart="0.0">
        <route edges="1 3 4" />
    </vehicle>
    <vehicle id="24" depart="0.0">
        <route edges="1 3 4" />
    </vehicle>
    <vehicle id="25" depart="0.0">
        <route edges="1 3 4" />
    </vehicle>
    <vehicle id="26" depart="0.0">
        <route edges="1 3 4" />
    </vehicle>
    <vehicle id="27" depart="0.0">
        <route edges="1 3 4" />
    </vehicle>
    <vehicle id="28" depart="0.0">
        <route edges="1 3 4" />
    </vehicle>
    <vehicle id="29" depart="0.0">
        <route edges="1 3 4" />
    </vehicle>

    <vehicle id="40" depart="0.0">
        <route edges="2 3 4" />
    </vehicle>
    <vehicle id="41" depart="0.0">
        <route edges="2 3 4" />
    </vehicle>
    <vehicle id="42" depart="0.0">
        <route edges="2 3 4" />
    </vehicle>
    <vehicle id="43" depart="0.0">
        <route edges="2 3 4" />
    </vehicle>
    <vehicle id="44" depart="0.0">
        <route edges="2 3 4" />
    </vehicle>
    <vehicle id="45" depart="0.0">
        <route edges="2 3 4" />
    </vehicle>
    <vehicle id="46" depart="0.0">
        <route edges="2 3 4" />
    </vehicle>
    <vehicle id="47" depart="0.0">
        <route edges="2 3 4" />
    </vehicle>
    <vehicle id="48" depart="0.0">
        <route edges="2 3 4" />
    </vehicle>
    <vehicle id="49" depart="0.0">
        <route edges="2 3 4" />
    </vehicle>
<<<<<<< local

</routes>=======
    <vehicle id="34" depart="0.0">
        <route edges="7 1" />
    </vehicle>
    <vehicle id="35" depart="0.0">
        <route edges="7 1" />
    </vehicle>-->
    <!--
    <vehicle id="36" depart="0.0">
        <route edges="7 4" />
    </vehicle>
    <vehicle id="37" depart="0.0">
        <route edges="7 4" />
    </vehicle>
    <vehicle id="38" depart="0.0">
        <route edges="7 2" />
    </vehicle>
    -->
</routes>
>>>>>>> other
