<?xml version="1.0" encoding="UTF-8"?>

<!-- generated on Tue Sep 15 16:16:48 2015 by SUMO duarouter Version 0.24.0
<?xml version="1.0" encoding="UTF-8"?>

<configuration xmlns:xsi="http://www.w3.org/2001/XMLSchema-instance" xsi:noNamespaceSchemaLocation="http://sumo.dlr.de/xsd/duarouterConfiguration.xsd">

    <input>
        <net-file value="artificialHighway-funnel/artificialHighway-funnel.net.xml"/>
        <flow-files value="artificialHighway-funnel/artificialHighway-funnel.flows.xml"/>
    </input>

    <output>
        <output-file value="artificialHighway-funnel/artificialHighway-funnel.rou.xml"/>
    </output>

    <processing>
        <ignore-errors value="true"/>
        <routing-algorithm value="astar"/>
    </processing>

    <report>
        <no-warnings value="true"/>
    </report>

</configuration>
-->

<routes xmlns:xsi="http://www.w3.org/2001/XMLSchema-instance" xsi:noNamespaceSchemaLocation="http://sumo.dlr.de/xsd/routes_file.xsd">
    <vehicle id="1" depart="5.00">
        <route edges="2 3"/>
    </vehicle>
    <vehicle id="2" depart="5.00">
        <route edges="2 3"/>
    </vehicle>
    <vehicle id="3" depart="6.09">
        <route edges="2 3"/>
    </vehicle>
    <vehicle id="4" depart="6.09">
        <route edges="2 3"/>
    </vehicle>
    <vehicle id="5" depart="7.19">
        <route edges="2 3"/>
    </vehicle>
    <vehicle id="6" depart="7.19">
        <route edges="2 3"/>
    </vehicle>
    <vehicle id="7" depart="8.28">
        <route edges="2 3"/>
    </vehicle>
    <vehicle id="8" depart="8.28">
        <route edges="2 3"/>
    </vehicle>
    <vehicle id="9" depart="9.37">
        <route edges="2 3"/>
    </vehicle>
    <vehicle id="10" depart="9.37">
        <route edges="2 3"/>
    </vehicle>
    <vehicle id="11" depart="10.46">
        <route edges="2 3"/>
    </vehicle>
    <vehicle id="12" depart="10.46">
        <route edges="2 3"/>
    </vehicle>
    <vehicle id="13" depart="11.56">
        <route edges="2 3"/>
    </vehicle>
    <vehicle id="14" depart="11.56">
        <route edges="2 3"/>
    </vehicle>
    <vehicle id="15" depart="12.65">
        <route edges="2 3"/>
    </vehicle>
    <vehicle id="16" depart="12.65">
        <route edges="2 3"/>
    </vehicle>
    <vehicle id="17" depart="13.74">
        <route edges="2 3"/>
    </vehicle>
    <vehicle id="18" depart="13.74">
        <route edges="2 3"/>
    </vehicle>
    <vehicle id="19" depart="14.84">
        <route edges="2 3"/>
    </vehicle>
    <vehicle id="20" depart="14.84">
        <route edges="2 3"/>
    </vehicle>
    <vehicle id="21" depart="15.93">
        <route edges="2 3"/>
    </vehicle>
    <vehicle id="22" depart="15.93">
        <route edges="2 3"/>
    </vehicle>
    <vehicle id="23" depart="17.02">
        <route edges="2 3"/>
    </vehicle>
    <vehicle id="24" depart="17.02">
        <route edges="2 3"/>
    </vehicle>
    <vehicle id="25" depart="18.12">
        <route edges="2 3"/>
    </vehicle>
    <vehicle id="26" depart="18.12">
        <route edges="2 3"/>
    </vehicle>
    <vehicle id="27" depart="19.21">
        <route edges="2 3"/>
    </vehicle>
    <vehicle id="28" depart="19.21">
        <route edges="2 3"/>
    </vehicle>
    <vehicle id="29" depart="20.30">
        <route edges="2 3"/>
    </vehicle>
    <vehicle id="30" depart="20.30">
        <route edges="2 3"/>
    </vehicle>
    <vehicle id="31" depart="21.39">
        <route edges="2 3"/>
    </vehicle>
    <vehicle id="32" depart="21.39">
        <route edges="2 3"/>
    </vehicle>
    <vehicle id="33" depart="22.49">
        <route edges="2 3"/>
    </vehicle>
    <vehicle id="34" depart="22.49">
        <route edges="2 3"/>
    </vehicle>
    <vehicle id="35" depart="23.58">
        <route edges="2 3"/>
    </vehicle>
    <vehicle id="36" depart="23.58">
        <route edges="2 3"/>
    </vehicle>
    <vehicle id="37" depart="24.67">
        <route edges="2 3"/>
    </vehicle>
    <vehicle id="38" depart="24.67">
        <route edges="2 3"/>
    </vehicle>
    <vehicle id="39" depart="25.77">
        <route edges="2 3"/>
    </vehicle>
    <vehicle id="40" depart="25.77">
        <route edges="2 3"/>
    </vehicle>
    <vehicle id="41" depart="26.86">
        <route edges="2 3"/>
    </vehicle>
    <vehicle id="42" depart="26.86">
        <route edges="2 3"/>
    </vehicle>
    <vehicle id="43" depart="27.95">
        <route edges="2 3"/>
    </vehicle>
    <vehicle id="44" depart="27.95">
        <route edges="2 3"/>
    </vehicle>
    <vehicle id="45" depart="29.05">
        <route edges="2 3"/>
    </vehicle>
    <vehicle id="46" depart="29.05">
        <route edges="2 3"/>
    </vehicle>
    <vehicle id="47" depart="30.14">
        <route edges="2 3"/>
    </vehicle>
    <vehicle id="48" depart="30.14">
        <route edges="2 3"/>
    </vehicle>
    <vehicle id="49" depart="31.23">
        <route edges="2 3"/>
    </vehicle>
    <vehicle id="50" depart="31.23">
        <route edges="2 3"/>
    </vehicle>
    <vehicle id="51" depart="32.33">
        <route edges="2 3"/>
    </vehicle>
    <vehicle id="52" depart="32.33">
        <route edges="2 3"/>
    </vehicle>
    <vehicle id="53" depart="33.42">
        <route edges="2 3"/>
    </vehicle>
    <vehicle id="54" depart="33.42">
        <route edges="2 3"/>
    </vehicle>
    <vehicle id="55" depart="34.51">
        <route edges="2 3"/>
    </vehicle>
    <vehicle id="56" depart="34.51">
        <route edges="2 3"/>
    </vehicle>
    <vehicle id="57" depart="35.60">
        <route edges="2 3"/>
    </vehicle>
    <vehicle id="58" depart="35.60">
        <route edges="2 3"/>
    </vehicle>
    <vehicle id="59" depart="36.70">
        <route edges="2 3"/>
    </vehicle>
    <vehicle id="60" depart="36.70">
        <route edges="2 3"/>
    </vehicle>
    <vehicle id="61" depart="37.79">
        <route edges="2 3"/>
    </vehicle>
    <vehicle id="62" depart="37.79">
        <route edges="2 3"/>
    </vehicle>
    <vehicle id="63" depart="38.88">
        <route edges="2 3"/>
    </vehicle>
    <vehicle id="64" depart="38.88">
        <route edges="2 3"/>
    </vehicle>
    <vehicle id="65" depart="39.98">
        <route edges="2 3"/>
    </vehicle>
    <vehicle id="66" depart="39.98">
        <route edges="2 3"/>
    </vehicle>
    <vehicle id="67" depart="41.07">
        <route edges="2 3"/>
    </vehicle>
    <vehicle id="68" depart="41.07">
        <route edges="2 3"/>
    </vehicle>
    <vehicle id="69" depart="42.16">
        <route edges="2 3"/>
    </vehicle>
    <vehicle id="70" depart="42.16">
        <route edges="2 3"/>
    </vehicle>
    <vehicle id="71" depart="43.26">
        <route edges="2 3"/>
    </vehicle>
    <vehicle id="72" depart="43.26">
        <route edges="2 3"/>
    </vehicle>
    <vehicle id="73" depart="44.35">
        <route edges="2 3"/>
    </vehicle>
    <vehicle id="74" depart="44.35">
        <route edges="2 3"/>
    </vehicle>
    <vehicle id="75" depart="45.44">
        <route edges="2 3"/>
    </vehicle>
    <vehicle id="76" depart="45.44">
        <route edges="2 3"/>
    </vehicle>
    <vehicle id="77" depart="46.53">
        <route edges="2 3"/>
    </vehicle>
    <vehicle id="78" depart="46.53">
        <route edges="2 3"/>
    </vehicle>
    <vehicle id="79" depart="47.63">
        <route edges="2 3"/>
    </vehicle>
    <vehicle id="80" depart="47.63">
        <route edges="2 3"/>
    </vehicle>
    <vehicle id="81" depart="48.72">
        <route edges="2 3"/>
    </vehicle>
    <vehicle id="82" depart="48.72">
        <route edges="2 3"/>
    </vehicle>
    <vehicle id="83" depart="49.81">
        <route edges="2 3"/>
    </vehicle>
    <vehicle id="84" depart="49.81">
        <route edges="2 3"/>
    </vehicle>
    <vehicle id="85" depart="50.91">
        <route edges="2 3"/>
    </vehicle>
    <vehicle id="86" depart="50.91">
        <route edges="2 3"/>
    </vehicle>
    <vehicle id="87" depart="52.00">
        <route edges="2 3"/>
    </vehicle>
    <vehicle id="88" depart="52.00">
        <route edges="2 3"/>
    </vehicle>
    <vehicle id="89" depart="53.09">
        <route edges="2 3"/>
    </vehicle>
    <vehicle id="90" depart="53.09">
        <route edges="2 3"/>
    </vehicle>
    <vehicle id="91" depart="54.19">
        <route edges="2 3"/>
    </vehicle>
    <vehicle id="92" depart="54.19">
        <route edges="2 3"/>
    </vehicle>
    <vehicle id="93" depart="55.28">
        <route edges="2 3"/>
    </vehicle>
    <vehicle id="94" depart="55.28">
        <route edges="2 3"/>
    </vehicle>
    <vehicle id="95" depart="56.37">
        <route edges="2 3"/>
    </vehicle>
    <vehicle id="96" depart="56.37">
        <route edges="2 3"/>
    </vehicle>
    <vehicle id="97" depart="57.46">
        <route edges="2 3"/>
    </vehicle>
    <vehicle id="98" depart="57.46">
        <route edges="2 3"/>
    </vehicle>
    <vehicle id="99" depart="58.56">
        <route edges="2 3"/>
    </vehicle>
    <vehicle id="100" depart="58.56">
        <route edges="2 3"/>
    </vehicle>
    <vehicle id="101" depart="59.65">
        <route edges="2 3"/>
    </vehicle>
    <vehicle id="102" depart="59.65">
        <route edges="2 3"/>
    </vehicle>
    <vehicle id="103" depart="60.74">
        <route edges="2 3"/>
    </vehicle>
    <vehicle id="104" depart="60.74">
        <route edges="2 3"/>
    </vehicle>
    <vehicle id="105" depart="61.84">
        <route edges="2 3"/>
    </vehicle>
    <vehicle id="106" depart="61.84">
        <route edges="2 3"/>
    </vehicle>
    <vehicle id="107" depart="62.93">
        <route edges="2 3"/>
    </vehicle>
    <vehicle id="108" depart="62.93">
        <route edges="2 3"/>
    </vehicle>
    <vehicle id="109" depart="64.02">
        <route edges="2 3"/>
    </vehicle>
    <vehicle id="110" depart="64.02">
        <route edges="2 3"/>
    </vehicle>
    <vehicle id="111" depart="65.11">
        <route edges="2 3"/>
    </vehicle>
    <vehicle id="112" depart="65.11">
        <route edges="2 3"/>
    </vehicle>
    <vehicle id="113" depart="66.21">
        <route edges="2 3"/>
    </vehicle>
    <vehicle id="114" depart="66.21">
        <route edges="2 3"/>
    </vehicle>
    <vehicle id="115" depart="67.30">
        <route edges="2 3"/>
    </vehicle>
    <vehicle id="116" depart="67.30">
        <route edges="2 3"/>
    </vehicle>
    <vehicle id="117" depart="68.39">
        <route edges="2 3"/>
    </vehicle>
    <vehicle id="118" depart="68.39">
        <route edges="2 3"/>
    </vehicle>
    <vehicle id="119" depart="69.49">
        <route edges="2 3"/>
    </vehicle>
    <vehicle id="120" depart="69.49">
        <route edges="2 3"/>
    </vehicle>
    <vehicle id="121" depart="70.58">
        <route edges="2 3"/>
    </vehicle>
    <vehicle id="122" depart="70.58">
        <route edges="2 3"/>
    </vehicle>
    <vehicle id="123" depart="71.67">
        <route edges="2 3"/>
    </vehicle>
    <vehicle id="124" depart="71.67">
        <route edges="2 3"/>
    </vehicle>
    <vehicle id="125" depart="72.77">
        <route edges="2 3"/>
    </vehicle>
    <vehicle id="126" depart="72.77">
        <route edges="2 3"/>
    </vehicle>
    <vehicle id="127" depart="73.86">
        <route edges="2 3"/>
    </vehicle>
    <vehicle id="128" depart="73.86">
        <route edges="2 3"/>
    </vehicle>
    <vehicle id="129" depart="74.95">
        <route edges="2 3"/>
    </vehicle>
    <vehicle id="130" depart="74.95">
        <route edges="2 3"/>
    </vehicle>
    <vehicle id="131" depart="76.05">
        <route edges="2 3"/>
    </vehicle>
    <vehicle id="132" depart="76.05">
        <route edges="2 3"/>
    </vehicle>
    <vehicle id="133" depart="77.14">
        <route edges="2 3"/>
    </vehicle>
    <vehicle id="134" depart="77.14">
        <route edges="2 3"/>
    </vehicle>
    <vehicle id="135" depart="78.23">
        <route edges="2 3"/>
    </vehicle>
    <vehicle id="136" depart="78.23">
        <route edges="2 3"/>
    </vehicle>
    <vehicle id="137" depart="79.32">
        <route edges="2 3"/>
    </vehicle>
    <vehicle id="138" depart="79.32">
        <route edges="2 3"/>
    </vehicle>
    <vehicle id="139" depart="80.42">
        <route edges="2 3"/>
    </vehicle>
    <vehicle id="140" depart="80.42">
        <route edges="2 3"/>
    </vehicle>
    <vehicle id="141" depart="81.51">
        <route edges="2 3"/>
    </vehicle>
    <vehicle id="142" depart="81.51">
        <route edges="2 3"/>
    </vehicle>
    <vehicle id="143" depart="82.60">
        <route edges="2 3"/>
    </vehicle>
    <vehicle id="144" depart="82.60">
        <route edges="2 3"/>
    </vehicle>
    <vehicle id="145" depart="83.70">
        <route edges="2 3"/>
    </vehicle>
    <vehicle id="146" depart="83.70">
        <route edges="2 3"/>
    </vehicle>
    <vehicle id="147" depart="84.79">
        <route edges="2 3"/>
    </vehicle>
    <vehicle id="148" depart="84.79">
        <route edges="2 3"/>
    </vehicle>
    <vehicle id="149" depart="85.88">
        <route edges="2 3"/>
    </vehicle>
    <vehicle id="150" depart="85.88">
        <route edges="2 3"/>
    </vehicle>
    <vehicle id="151" depart="86.97">
        <route edges="2 3"/>
    </vehicle>
    <vehicle id="152" depart="86.97">
        <route edges="2 3"/>
    </vehicle>
    <vehicle id="153" depart="88.07">
        <route edges="2 3"/>
    </vehicle>
    <vehicle id="154" depart="88.07">
        <route edges="2 3"/>
    </vehicle>
    <vehicle id="155" depart="89.16">
        <route edges="2 3"/>
    </vehicle>
    <vehicle id="156" depart="89.16">
        <route edges="2 3"/>
    </vehicle>
    <vehicle id="157" depart="90.25">
        <route edges="2 3"/>
    </vehicle>
    <vehicle id="158" depart="90.25">
        <route edges="2 3"/>
    </vehicle>
    <vehicle id="159" depart="91.35">
        <route edges="2 3"/>
    </vehicle>
    <vehicle id="160" depart="91.35">
        <route edges="2 3"/>
    </vehicle>
    <vehicle id="161" depart="92.44">
        <route edges="2 3"/>
    </vehicle>
    <vehicle id="162" depart="92.44">
        <route edges="2 3"/>
    </vehicle>
    <vehicle id="163" depart="93.53">
        <route edges="2 3"/>
    </vehicle>
    <vehicle id="164" depart="93.53">
        <route edges="2 3"/>
    </vehicle>
    <vehicle id="165" depart="94.63">
        <route edges="2 3"/>
    </vehicle>
    <vehicle id="166" depart="94.63">
        <route edges="2 3"/>
    </vehicle>
    <vehicle id="167" depart="95.72">
        <route edges="2 3"/>
    </vehicle>
    <vehicle id="168" depart="95.72">
        <route edges="2 3"/>
    </vehicle>
    <vehicle id="169" depart="96.81">
        <route edges="2 3"/>
    </vehicle>
    <vehicle id="170" depart="96.81">
        <route edges="2 3"/>
    </vehicle>
    <vehicle id="171" depart="97.91">
        <route edges="2 3"/>
    </vehicle>
    <vehicle id="172" depart="97.91">
        <route edges="2 3"/>
    </vehicle>
    <vehicle id="173" depart="99.00">
        <route edges="2 3"/>
    </vehicle>
    <vehicle id="174" depart="99.00">
        <route edges="2 3"/>
    </vehicle>
    <vehicle id="175" depart="100.09">
        <route edges="2 3"/>
    </vehicle>
    <vehicle id="176" depart="100.09">
        <route edges="2 3"/>
    </vehicle>
    <vehicle id="177" depart="101.18">
        <route edges="2 3"/>
    </vehicle>
    <vehicle id="178" depart="101.18">
        <route edges="2 3"/>
    </vehicle>
    <vehicle id="179" depart="102.28">
        <route edges="2 3"/>
    </vehicle>
    <vehicle id="180" depart="102.28">
        <route edges="2 3"/>
    </vehicle>
    <vehicle id="181" depart="103.37">
        <route edges="2 3"/>
    </vehicle>
    <vehicle id="182" depart="103.37">
        <route edges="2 3"/>
    </vehicle>
    <vehicle id="183" depart="104.46">
        <route edges="2 3"/>
    </vehicle>
    <vehicle id="184" depart="104.46">
        <route edges="2 3"/>
    </vehicle>
    <vehicle id="185" depart="105.56">
        <route edges="2 3"/>
    </vehicle>
    <vehicle id="186" depart="105.56">
        <route edges="2 3"/>
    </vehicle>
    <vehicle id="187" depart="106.65">
        <route edges="2 3"/>
    </vehicle>
    <vehicle id="188" depart="106.65">
        <route edges="2 3"/>
    </vehicle>
    <vehicle id="189" depart="107.74">
        <route edges="2 3"/>
    </vehicle>
    <vehicle id="190" depart="107.74">
        <route edges="2 3"/>
    </vehicle>
    <vehicle id="191" depart="108.83">
        <route edges="2 3"/>
    </vehicle>
    <vehicle id="192" depart="108.83">
        <route edges="2 3"/>
    </vehicle>
    <vehicle id="193" depart="109.93">
        <route edges="2 3"/>
    </vehicle>
    <vehicle id="194" depart="109.93">
        <route edges="2 3"/>
    </vehicle>
    <vehicle id="195" depart="111.02">
        <route edges="2 3"/>
    </vehicle>
    <vehicle id="196" depart="111.02">
        <route edges="2 3"/>
    </vehicle>
    <vehicle id="197" depart="112.11">
        <route edges="2 3"/>
    </vehicle>
    <vehicle id="198" depart="112.11">
        <route edges="2 3"/>
    </vehicle>
    <vehicle id="199" depart="113.21">
        <route edges="2 3"/>
    </vehicle>
    <vehicle id="200" depart="113.21">
        <route edges="2 3"/>
    </vehicle>
    <vehicle id="201" depart="114.30">
        <route edges="2 3"/>
    </vehicle>
    <vehicle id="202" depart="114.30">
        <route edges="2 3"/>
    </vehicle>
    <vehicle id="203" depart="115.39">
        <route edges="2 3"/>
    </vehicle>
    <vehicle id="204" depart="115.39">
        <route edges="2 3"/>
    </vehicle>
    <vehicle id="205" depart="116.49">
        <route edges="2 3"/>
    </vehicle>
    <vehicle id="206" depart="116.49">
        <route edges="2 3"/>
    </vehicle>
    <vehicle id="207" depart="117.58">
        <route edges="2 3"/>
    </vehicle>
    <vehicle id="208" depart="117.58">
        <route edges="2 3"/>
    </vehicle>
    <vehicle id="209" depart="118.67">
        <route edges="2 3"/>
    </vehicle>
    <vehicle id="210" depart="118.67">
        <route edges="2 3"/>
    </vehicle>
    <vehicle id="211" depart="119.77">
        <route edges="2 3"/>
    </vehicle>
    <vehicle id="212" depart="119.77">
        <route edges="2 3"/>
    </vehicle>
    <vehicle id="213" depart="120.86">
        <route edges="2 3"/>
    </vehicle>
    <vehicle id="214" depart="120.86">
        <route edges="2 3"/>
    </vehicle>
    <vehicle id="215" depart="121.95">
        <route edges="2 3"/>
    </vehicle>
    <vehicle id="216" depart="121.95">
        <route edges="2 3"/>
    </vehicle>
    <vehicle id="217" depart="123.04">
        <route edges="2 3"/>
    </vehicle>
    <vehicle id="218" depart="123.04">
        <route edges="2 3"/>
    </vehicle>
    <vehicle id="219" depart="124.14">
        <route edges="2 3"/>
    </vehicle>
    <vehicle id="220" depart="124.14">
        <route edges="2 3"/>
    </vehicle>
    <vehicle id="221" depart="125.23">
        <route edges="2 3"/>
    </vehicle>
    <vehicle id="222" depart="125.23">
        <route edges="2 3"/>
    </vehicle>
    <vehicle id="223" depart="126.32">
        <route edges="2 3"/>
    </vehicle>
    <vehicle id="224" depart="126.32">
        <route edges="2 3"/>
    </vehicle>
    <vehicle id="225" depart="127.42">
        <route edges="2 3"/>
    </vehicle>
    <vehicle id="226" depart="127.42">
        <route edges="2 3"/>
    </vehicle>
    <vehicle id="227" depart="128.51">
        <route edges="2 3"/>
    </vehicle>
    <vehicle id="228" depart="128.51">
        <route edges="2 3"/>
    </vehicle>
    <vehicle id="229" depart="129.60">
        <route edges="2 3"/>
    </vehicle>
    <vehicle id="230" depart="129.60">
        <route edges="2 3"/>
    </vehicle>
    <vehicle id="231" depart="130.69">
        <route edges="2 3"/>
    </vehicle>
    <vehicle id="232" depart="130.69">
        <route edges="2 3"/>
    </vehicle>
    <vehicle id="233" depart="131.79">
        <route edges="2 3"/>
    </vehicle>
    <vehicle id="234" depart="131.79">
        <route edges="2 3"/>
    </vehicle>
    <vehicle id="235" depart="132.88">
        <route edges="2 3"/>
    </vehicle>
    <vehicle id="236" depart="132.88">
        <route edges="2 3"/>
    </vehicle>
    <vehicle id="237" depart="133.97">
        <route edges="2 3"/>
    </vehicle>
    <vehicle id="238" depart="133.97">
        <route edges="2 3"/>
    </vehicle>
    <vehicle id="239" depart="135.07">
        <route edges="2 3"/>
    </vehicle>
    <vehicle id="240" depart="135.07">
        <route edges="2 3"/>
    </vehicle>
    <vehicle id="241" depart="136.16">
        <route edges="2 3"/>
    </vehicle>
    <vehicle id="242" depart="136.16">
        <route edges="2 3"/>
    </vehicle>
    <vehicle id="243" depart="137.25">
        <route edges="2 3"/>
    </vehicle>
    <vehicle id="244" depart="137.25">
        <route edges="2 3"/>
    </vehicle>
    <vehicle id="245" depart="138.35">
        <route edges="2 3"/>
    </vehicle>
    <vehicle id="246" depart="138.35">
        <route edges="2 3"/>
    </vehicle>
    <vehicle id="247" depart="139.44">
        <route edges="2 3"/>
    </vehicle>
    <vehicle id="248" depart="139.44">
        <route edges="2 3"/>
    </vehicle>
    <vehicle id="249" depart="140.53">
        <route edges="2 3"/>
    </vehicle>
    <vehicle id="250" depart="140.53">
        <route edges="2 3"/>
    </vehicle>
    <vehicle id="251" depart="141.62">
        <route edges="2 3"/>
    </vehicle>
    <vehicle id="252" depart="141.62">
        <route edges="2 3"/>
    </vehicle>
    <vehicle id="253" depart="142.72">
        <route edges="2 3"/>
    </vehicle>
    <vehicle id="254" depart="142.72">
        <route edges="2 3"/>
    </vehicle>
    <vehicle id="255" depart="143.81">
        <route edges="2 3"/>
    </vehicle>
    <vehicle id="256" depart="143.81">
        <route edges="2 3"/>
    </vehicle>
    <vehicle id="257" depart="144.90">
        <route edges="2 3"/>
    </vehicle>
    <vehicle id="258" depart="144.90">
        <route edges="2 3"/>
    </vehicle>
    <vehicle id="259" depart="146.00">
        <route edges="2 3"/>
    </vehicle>
    <vehicle id="260" depart="146.00">
        <route edges="2 3"/>
    </vehicle>
    <vehicle id="261" depart="147.09">
        <route edges="2 3"/>
    </vehicle>
    <vehicle id="262" depart="147.09">
        <route edges="2 3"/>
    </vehicle>
    <vehicle id="263" depart="148.18">
        <route edges="2 3"/>
    </vehicle>
    <vehicle id="264" depart="148.18">
        <route edges="2 3"/>
    </vehicle>
    <vehicle id="265" depart="149.28">
        <route edges="2 3"/>
    </vehicle>
    <vehicle id="266" depart="149.28">
        <route edges="2 3"/>
    </vehicle>
    <vehicle id="267" depart="150.37">
        <route edges="2 3"/>
    </vehicle>
    <vehicle id="268" depart="150.37">
        <route edges="2 3"/>
    </vehicle>
    <vehicle id="269" depart="151.46">
        <route edges="2 3"/>
    </vehicle>
    <vehicle id="270" depart="151.46">
        <route edges="2 3"/>
    </vehicle>
    <vehicle id="271" depart="152.56">
        <route edges="2 3"/>
    </vehicle>
    <vehicle id="272" depart="152.56">
        <route edges="2 3"/>
    </vehicle>
    <vehicle id="273" depart="153.65">
        <route edges="2 3"/>
    </vehicle>
    <vehicle id="274" depart="153.65">
        <route edges="2 3"/>
    </vehicle>
    <vehicle id="275" depart="154.74">
        <route edges="2 3"/>
    </vehicle>
    <vehicle id="276" depart="154.74">
        <route edges="2 3"/>
    </vehicle>
    <vehicle id="277" depart="155.83">
        <route edges="2 3"/>
    </vehicle>
    <vehicle id="278" depart="155.83">
        <route edges="2 3"/>
    </vehicle>
    <vehicle id="279" depart="156.93">
        <route edges="2 3"/>
    </vehicle>
    <vehicle id="280" depart="156.93">
        <route edges="2 3"/>
    </vehicle>
    <vehicle id="281" depart="158.02">
        <route edges="2 3"/>
    </vehicle>
    <vehicle id="282" depart="158.02">
        <route edges="2 3"/>
    </vehicle>
    <vehicle id="283" depart="159.11">
        <route edges="2 3"/>
    </vehicle>
    <vehicle id="284" depart="159.11">
        <route edges="2 3"/>
    </vehicle>
    <vehicle id="285" depart="160.21">
        <route edges="2 3"/>
    </vehicle>
    <vehicle id="286" depart="160.21">
        <route edges="2 3"/>
    </vehicle>
    <vehicle id="287" depart="161.30">
        <route edges="2 3"/>
    </vehicle>
    <vehicle id="288" depart="161.30">
        <route edges="2 3"/>
    </vehicle>
    <vehicle id="289" depart="162.39">
        <route edges="2 3"/>
    </vehicle>
    <vehicle id="290" depart="162.39">
        <route edges="2 3"/>
    </vehicle>
    <vehicle id="291" depart="163.49">
        <route edges="2 3"/>
    </vehicle>
    <vehicle id="292" depart="163.49">
        <route edges="2 3"/>
    </vehicle>
    <vehicle id="293" depart="164.58">
        <route edges="2 3"/>
    </vehicle>
    <vehicle id="294" depart="164.58">
        <route edges="2 3"/>
    </vehicle>
    <vehicle id="295" depart="165.67">
        <route edges="2 3"/>
    </vehicle>
    <vehicle id="296" depart="165.67">
        <route edges="2 3"/>
    </vehicle>
    <vehicle id="297" depart="166.76">
        <route edges="2 3"/>
    </vehicle>
    <vehicle id="298" depart="166.76">
        <route edges="2 3"/>
    </vehicle>
    <vehicle id="299" depart="167.86">
        <route edges="2 3"/>
    </vehicle>
    <vehicle id="300" depart="167.86">
        <route edges="2 3"/>
    </vehicle>
    <vehicle id="301" depart="168.95">
        <route edges="2 3"/>
    </vehicle>
    <vehicle id="302" depart="168.95">
        <route edges="2 3"/>
    </vehicle>
    <vehicle id="303" depart="170.04">
        <route edges="2 3"/>
    </vehicle>
    <vehicle id="304" depart="170.04">
        <route edges="2 3"/>
    </vehicle>
    <vehicle id="305" depart="171.14">
        <route edges="2 3"/>
    </vehicle>
    <vehicle id="306" depart="171.14">
        <route edges="2 3"/>
    </vehicle>
    <vehicle id="307" depart="172.23">
        <route edges="2 3"/>
    </vehicle>
    <vehicle id="308" depart="172.23">
        <route edges="2 3"/>
    </vehicle>
    <vehicle id="309" depart="173.32">
        <route edges="2 3"/>
    </vehicle>
    <vehicle id="310" depart="173.32">
        <route edges="2 3"/>
    </vehicle>
    <vehicle id="311" depart="174.41">
        <route edges="2 3"/>
    </vehicle>
    <vehicle id="312" depart="174.41">
        <route edges="2 3"/>
    </vehicle>
    <vehicle id="313" depart="175.51">
        <route edges="2 3"/>
    </vehicle>
    <vehicle id="314" depart="175.51">
        <route edges="2 3"/>
    </vehicle>
    <vehicle id="315" depart="176.60">
        <route edges="2 3"/>
    </vehicle>
    <vehicle id="316" depart="176.60">
        <route edges="2 3"/>
    </vehicle>
    <vehicle id="317" depart="177.69">
        <route edges="2 3"/>
    </vehicle>
    <vehicle id="318" depart="177.69">
        <route edges="2 3"/>
    </vehicle>
    <vehicle id="319" depart="178.79">
        <route edges="2 3"/>
    </vehicle>
    <vehicle id="320" depart="178.79">
        <route edges="2 3"/>
    </vehicle>
</routes>
