<?xml version="1.0" encoding="UTF-8"?>

<!-- generated on Thu May 14 15:00:34 2015 by SUMO duarouter Version 0.22.0
<?xml version="1.0" encoding="UTF-8"?>

<configuration xmlns:xsi="http://www.w3.org/2001/XMLSchema-instance" xsi:noNamespaceSchemaLocation="http://sumo.dlr.de/xsd/duarouterConfiguration.xsd">

    <input>
        <net-file value="artificialHighway-funnel/artificialHighway-funnel.net.xml"/>
        <flow-files value="artificialHighway-funnel/artificialHighway-funnel.flows.xml"/>
    </input>

    <output>
        <output-file value="artificialHighway-funnel/artificialHighway-funnel.rou.xml"/>
    </output>

    <processing>
        <ignore-errors value="true"/>
        <routing-algorithm value="astar"/>
    </processing>

    <report>
        <no-warnings value="true"/>
    </report>

</configuration>
-->

<routes xmlns:xsi="http://www.w3.org/2001/XMLSchema-instance" xsi:noNamespaceSchemaLocation="http://sumo.dlr.de/xsd/routes_file.xsd">
    <vehicle id="1" depart="10.00">
        <route edges="0 3"/>
    </vehicle>
    <vehicle id="2" depart="10.00">
        <route edges="1 3"/>
    </vehicle>
    <vehicle id="3" depart="11.06">
        <route edges="0 3"/>
    </vehicle>
    <vehicle id="4" depart="11.06">
        <route edges="1 3"/>
    </vehicle>
    <vehicle id="5" depart="12.12">
        <route edges="0 3"/>
    </vehicle>
    <vehicle id="6" depart="12.12">
        <route edges="1 3"/>
    </vehicle>
    <vehicle id="7" depart="13.19">
        <route edges="0 3"/>
    </vehicle>
    <vehicle id="8" depart="13.19">
        <route edges="1 3"/>
    </vehicle>
    <vehicle id="9" depart="14.25">
        <route edges="0 3"/>
    </vehicle>
    <vehicle id="10" depart="14.25">
        <route edges="1 3"/>
    </vehicle>
    <vehicle id="11" depart="15.31">
        <route edges="0 3"/>
    </vehicle>
    <vehicle id="12" depart="15.31">
        <route edges="1 3"/>
    </vehicle>
    <vehicle id="13" depart="16.37">
        <route edges="0 3"/>
    </vehicle>
    <vehicle id="14" depart="16.37">
        <route edges="1 3"/>
    </vehicle>
    <vehicle id="15" depart="17.43">
        <route edges="0 3"/>
    </vehicle>
    <vehicle id="16" depart="17.43">
        <route edges="1 3"/>
    </vehicle>
    <vehicle id="17" depart="18.50">
        <route edges="0 3"/>
    </vehicle>
    <vehicle id="18" depart="18.50">
        <route edges="1 3"/>
    </vehicle>
    <vehicle id="19" depart="19.56">
        <route edges="0 3"/>
    </vehicle>
    <vehicle id="20" depart="19.56">
        <route edges="1 3"/>
    </vehicle>
    <vehicle id="21" depart="20.62">
        <route edges="0 3"/>
    </vehicle>
    <vehicle id="22" depart="20.62">
        <route edges="1 3"/>
    </vehicle>
    <vehicle id="23" depart="21.68">
        <route edges="0 3"/>
    </vehicle>
    <vehicle id="24" depart="21.68">
        <route edges="1 3"/>
    </vehicle>
    <vehicle id="25" depart="22.74">
        <route edges="0 3"/>
    </vehicle>
    <vehicle id="26" depart="22.74">
        <route edges="1 3"/>
    </vehicle>
    <vehicle id="27" depart="23.81">
        <route edges="0 3"/>
    </vehicle>
    <vehicle id="28" depart="23.81">
        <route edges="1 3"/>
    </vehicle>
    <vehicle id="29" depart="24.87">
        <route edges="0 3"/>
    </vehicle>
    <vehicle id="30" depart="24.87">
        <route edges="1 3"/>
    </vehicle>
    <vehicle id="31" depart="25.93">
        <route edges="0 3"/>
    </vehicle>
    <vehicle id="32" depart="25.93">
        <route edges="1 3"/>
    </vehicle>
    <vehicle id="33" depart="26.99">
        <route edges="0 3"/>
    </vehicle>
    <vehicle id="34" depart="26.99">
        <route edges="1 3"/>
    </vehicle>
    <vehicle id="35" depart="28.05">
        <route edges="0 3"/>
    </vehicle>
    <vehicle id="36" depart="28.05">
        <route edges="1 3"/>
    </vehicle>
    <vehicle id="37" depart="29.12">
        <route edges="0 3"/>
    </vehicle>
    <vehicle id="38" depart="29.12">
        <route edges="1 3"/>
    </vehicle>
    <vehicle id="39" depart="30.18">
        <route edges="0 3"/>
    </vehicle>
    <vehicle id="40" depart="30.18">
        <route edges="1 3"/>
    </vehicle>
    <vehicle id="41" depart="31.24">
        <route edges="0 3"/>
    </vehicle>
    <vehicle id="42" depart="31.24">
        <route edges="1 3"/>
    </vehicle>
    <vehicle id="43" depart="32.30">
        <route edges="0 3"/>
    </vehicle>
    <vehicle id="44" depart="32.30">
        <route edges="1 3"/>
    </vehicle>
    <vehicle id="45" depart="33.36">
        <route edges="0 3"/>
    </vehicle>
    <vehicle id="46" depart="33.36">
        <route edges="1 3"/>
    </vehicle>
    <vehicle id="47" depart="34.43">
        <route edges="0 3"/>
    </vehicle>
    <vehicle id="48" depart="34.43">
        <route edges="1 3"/>
    </vehicle>
    <vehicle id="49" depart="35.49">
        <route edges="0 3"/>
    </vehicle>
    <vehicle id="50" depart="35.49">
        <route edges="1 3"/>
    </vehicle>
    <vehicle id="51" depart="36.55">
        <route edges="0 3"/>
    </vehicle>
    <vehicle id="52" depart="36.55">
        <route edges="1 3"/>
    </vehicle>
    <vehicle id="53" depart="37.61">
        <route edges="0 3"/>
    </vehicle>
    <vehicle id="54" depart="37.61">
        <route edges="1 3"/>
    </vehicle>
    <vehicle id="55" depart="38.67">
        <route edges="0 3"/>
    </vehicle>
    <vehicle id="56" depart="38.67">
        <route edges="1 3"/>
    </vehicle>
    <vehicle id="57" depart="39.74">
        <route edges="0 3"/>
    </vehicle>
    <vehicle id="58" depart="39.74">
        <route edges="1 3"/>
    </vehicle>
    <vehicle id="59" depart="40.80">
        <route edges="0 3"/>
    </vehicle>
    <vehicle id="60" depart="40.80">
        <route edges="1 3"/>
    </vehicle>
    <vehicle id="61" depart="41.86">
        <route edges="0 3"/>
    </vehicle>
    <vehicle id="62" depart="41.86">
        <route edges="1 3"/>
    </vehicle>
    <vehicle id="63" depart="42.92">
        <route edges="0 3"/>
    </vehicle>
    <vehicle id="64" depart="42.92">
        <route edges="1 3"/>
    </vehicle>
    <vehicle id="65" depart="43.98">
        <route edges="0 3"/>
    </vehicle>
    <vehicle id="66" depart="43.98">
        <route edges="1 3"/>
    </vehicle>
    <vehicle id="67" depart="45.05">
        <route edges="0 3"/>
    </vehicle>
    <vehicle id="68" depart="45.05">
        <route edges="1 3"/>
    </vehicle>
    <vehicle id="69" depart="46.11">
        <route edges="0 3"/>
    </vehicle>
    <vehicle id="70" depart="46.11">
        <route edges="1 3"/>
    </vehicle>
    <vehicle id="71" depart="47.17">
        <route edges="0 3"/>
    </vehicle>
    <vehicle id="72" depart="47.17">
        <route edges="1 3"/>
    </vehicle>
    <vehicle id="73" depart="48.23">
        <route edges="0 3"/>
    </vehicle>
    <vehicle id="74" depart="48.23">
        <route edges="1 3"/>
    </vehicle>
    <vehicle id="75" depart="49.29">
        <route edges="0 3"/>
    </vehicle>
    <vehicle id="76" depart="49.29">
        <route edges="1 3"/>
    </vehicle>
    <vehicle id="77" depart="50.36">
        <route edges="0 3"/>
    </vehicle>
    <vehicle id="78" depart="50.36">
        <route edges="1 3"/>
    </vehicle>
    <vehicle id="79" depart="51.42">
        <route edges="0 3"/>
    </vehicle>
    <vehicle id="80" depart="51.42">
        <route edges="1 3"/>
    </vehicle>
    <vehicle id="81" depart="52.48">
        <route edges="0 3"/>
    </vehicle>
    <vehicle id="82" depart="52.48">
        <route edges="1 3"/>
    </vehicle>
    <vehicle id="83" depart="53.54">
        <route edges="0 3"/>
    </vehicle>
    <vehicle id="84" depart="53.54">
        <route edges="1 3"/>
    </vehicle>
    <vehicle id="85" depart="54.60">
        <route edges="0 3"/>
    </vehicle>
    <vehicle id="86" depart="54.60">
        <route edges="1 3"/>
    </vehicle>
    <vehicle id="87" depart="55.67">
        <route edges="0 3"/>
    </vehicle>
    <vehicle id="88" depart="55.67">
        <route edges="1 3"/>
    </vehicle>
    <vehicle id="89" depart="56.73">
        <route edges="0 3"/>
    </vehicle>
    <vehicle id="90" depart="56.73">
        <route edges="1 3"/>
    </vehicle>
    <vehicle id="91" depart="57.79">
        <route edges="0 3"/>
    </vehicle>
    <vehicle id="92" depart="57.79">
        <route edges="1 3"/>
    </vehicle>
    <vehicle id="93" depart="58.85">
        <route edges="0 3"/>
    </vehicle>
    <vehicle id="94" depart="58.85">
        <route edges="1 3"/>
    </vehicle>
    <vehicle id="95" depart="59.91">
        <route edges="0 3"/>
    </vehicle>
    <vehicle id="96" depart="59.91">
        <route edges="1 3"/>
    </vehicle>
    <vehicle id="97" depart="60.98">
        <route edges="0 3"/>
    </vehicle>
    <vehicle id="98" depart="60.98">
        <route edges="1 3"/>
    </vehicle>
    <vehicle id="99" depart="62.04">
        <route edges="0 3"/>
    </vehicle>
    <vehicle id="100" depart="62.04">
        <route edges="1 3"/>
    </vehicle>
    <vehicle id="101" depart="63.10">
        <route edges="0 3"/>
    </vehicle>
    <vehicle id="102" depart="63.10">
        <route edges="1 3"/>
    </vehicle>
    <vehicle id="103" depart="64.16">
        <route edges="0 3"/>
    </vehicle>
    <vehicle id="104" depart="64.16">
        <route edges="1 3"/>
    </vehicle>
    <vehicle id="105" depart="65.22">
        <route edges="0 3"/>
    </vehicle>
    <vehicle id="106" depart="65.22">
        <route edges="1 3"/>
    </vehicle>
    <vehicle id="107" depart="66.29">
        <route edges="0 3"/>
    </vehicle>
    <vehicle id="108" depart="66.29">
        <route edges="1 3"/>
    </vehicle>
    <vehicle id="109" depart="67.35">
        <route edges="0 3"/>
    </vehicle>
    <vehicle id="110" depart="67.35">
        <route edges="1 3"/>
    </vehicle>
    <vehicle id="111" depart="68.41">
        <route edges="0 3"/>
    </vehicle>
    <vehicle id="112" depart="68.41">
        <route edges="1 3"/>
    </vehicle>
    <vehicle id="113" depart="69.47">
        <route edges="0 3"/>
    </vehicle>
    <vehicle id="114" depart="69.47">
        <route edges="1 3"/>
    </vehicle>
    <vehicle id="115" depart="70.53">
        <route edges="0 3"/>
    </vehicle>
    <vehicle id="116" depart="70.53">
        <route edges="1 3"/>
    </vehicle>
    <vehicle id="117" depart="71.60">
        <route edges="0 3"/>
    </vehicle>
    <vehicle id="118" depart="71.60">
        <route edges="1 3"/>
    </vehicle>
    <vehicle id="119" depart="72.66">
        <route edges="0 3"/>
    </vehicle>
    <vehicle id="120" depart="72.66">
        <route edges="1 3"/>
    </vehicle>
    <vehicle id="121" depart="73.72">
        <route edges="0 3"/>
    </vehicle>
    <vehicle id="122" depart="73.72">
        <route edges="1 3"/>
    </vehicle>
    <vehicle id="123" depart="74.78">
        <route edges="0 3"/>
    </vehicle>
    <vehicle id="124" depart="74.78">
        <route edges="1 3"/>
    </vehicle>
    <vehicle id="125" depart="75.84">
        <route edges="0 3"/>
    </vehicle>
    <vehicle id="126" depart="75.84">
        <route edges="1 3"/>
    </vehicle>
    <vehicle id="127" depart="76.91">
        <route edges="0 3"/>
    </vehicle>
    <vehicle id="128" depart="76.91">
        <route edges="1 3"/>
    </vehicle>
    <vehicle id="129" depart="77.97">
        <route edges="0 3"/>
    </vehicle>
    <vehicle id="130" depart="77.97">
        <route edges="1 3"/>
    </vehicle>
    <vehicle id="131" depart="79.03">
        <route edges="0 3"/>
    </vehicle>
    <vehicle id="132" depart="79.03">
        <route edges="1 3"/>
    </vehicle>
    <vehicle id="133" depart="80.09">
        <route edges="0 3"/>
    </vehicle>
    <vehicle id="134" depart="80.09">
        <route edges="1 3"/>
    </vehicle>
    <vehicle id="135" depart="81.15">
        <route edges="0 3"/>
    </vehicle>
    <vehicle id="136" depart="81.15">
        <route edges="1 3"/>
    </vehicle>
    <vehicle id="137" depart="82.22">
        <route edges="0 3"/>
    </vehicle>
    <vehicle id="138" depart="82.22">
        <route edges="1 3"/>
    </vehicle>
    <vehicle id="139" depart="83.28">
        <route edges="0 3"/>
    </vehicle>
    <vehicle id="140" depart="83.28">
        <route edges="1 3"/>
    </vehicle>
    <vehicle id="141" depart="84.34">
        <route edges="0 3"/>
    </vehicle>
    <vehicle id="142" depart="84.34">
        <route edges="1 3"/>
    </vehicle>
    <vehicle id="143" depart="85.40">
        <route edges="0 3"/>
    </vehicle>
    <vehicle id="144" depart="85.40">
        <route edges="1 3"/>
    </vehicle>
    <vehicle id="145" depart="86.46">
        <route edges="0 3"/>
    </vehicle>
    <vehicle id="146" depart="86.46">
        <route edges="1 3"/>
    </vehicle>
    <vehicle id="147" depart="87.53">
        <route edges="0 3"/>
    </vehicle>
    <vehicle id="148" depart="87.53">
        <route edges="1 3"/>
    </vehicle>
    <vehicle id="149" depart="88.59">
        <route edges="0 3"/>
    </vehicle>
    <vehicle id="150" depart="88.59">
        <route edges="1 3"/>
    </vehicle>
    <vehicle id="151" depart="89.65">
        <route edges="0 3"/>
    </vehicle>
    <vehicle id="152" depart="89.65">
        <route edges="1 3"/>
    </vehicle>
    <vehicle id="153" depart="90.71">
        <route edges="0 3"/>
    </vehicle>
    <vehicle id="154" depart="90.71">
        <route edges="1 3"/>
    </vehicle>
    <vehicle id="155" depart="91.77">
        <route edges="0 3"/>
    </vehicle>
    <vehicle id="156" depart="91.77">
        <route edges="1 3"/>
    </vehicle>
    <vehicle id="157" depart="92.84">
        <route edges="0 3"/>
    </vehicle>
    <vehicle id="158" depart="92.84">
        <route edges="1 3"/>
    </vehicle>
    <vehicle id="159" depart="93.90">
        <route edges="0 3"/>
    </vehicle>
    <vehicle id="160" depart="93.90">
        <route edges="1 3"/>
    </vehicle>
    <vehicle id="161" depart="94.96">
        <route edges="0 3"/>
    </vehicle>
    <vehicle id="162" depart="94.96">
        <route edges="1 3"/>
    </vehicle>
    <vehicle id="163" depart="96.02">
        <route edges="0 3"/>
    </vehicle>
    <vehicle id="164" depart="96.02">
        <route edges="1 3"/>
    </vehicle>
    <vehicle id="165" depart="97.08">
        <route edges="0 3"/>
    </vehicle>
    <vehicle id="166" depart="97.08">
        <route edges="1 3"/>
    </vehicle>
    <vehicle id="167" depart="98.15">
        <route edges="0 3"/>
    </vehicle>
    <vehicle id="168" depart="98.15">
        <route edges="1 3"/>
    </vehicle>
    <vehicle id="169" depart="99.21">
        <route edges="0 3"/>
    </vehicle>
    <vehicle id="170" depart="99.21">
        <route edges="1 3"/>
    </vehicle>
    <vehicle id="171" depart="100.27">
        <route edges="0 3"/>
    </vehicle>
    <vehicle id="172" depart="100.27">
        <route edges="1 3"/>
    </vehicle>
    <vehicle id="173" depart="101.33">
        <route edges="0 3"/>
    </vehicle>
    <vehicle id="174" depart="101.33">
        <route edges="1 3"/>
    </vehicle>
    <vehicle id="175" depart="102.39">
        <route edges="0 3"/>
    </vehicle>
    <vehicle id="176" depart="102.39">
        <route edges="1 3"/>
    </vehicle>
    <vehicle id="177" depart="103.46">
        <route edges="0 3"/>
    </vehicle>
    <vehicle id="178" depart="103.46">
        <route edges="1 3"/>
    </vehicle>
    <vehicle id="179" depart="104.52">
        <route edges="0 3"/>
    </vehicle>
    <vehicle id="180" depart="104.52">
        <route edges="1 3"/>
    </vehicle>
    <vehicle id="181" depart="105.58">
        <route edges="0 3"/>
    </vehicle>
    <vehicle id="182" depart="105.58">
        <route edges="1 3"/>
    </vehicle>
    <vehicle id="183" depart="106.64">
        <route edges="0 3"/>
    </vehicle>
    <vehicle id="184" depart="106.64">
        <route edges="1 3"/>
    </vehicle>
    <vehicle id="185" depart="107.70">
        <route edges="0 3"/>
    </vehicle>
    <vehicle id="186" depart="107.70">
        <route edges="1 3"/>
    </vehicle>
    <vehicle id="187" depart="108.77">
        <route edges="0 3"/>
    </vehicle>
    <vehicle id="188" depart="108.77">
        <route edges="1 3"/>
    </vehicle>
    <vehicle id="189" depart="109.83">
        <route edges="0 3"/>
    </vehicle>
    <vehicle id="190" depart="109.83">
        <route edges="1 3"/>
    </vehicle>
    <vehicle id="191" depart="110.89">
        <route edges="0 3"/>
    </vehicle>
    <vehicle id="192" depart="110.89">
        <route edges="1 3"/>
    </vehicle>
    <vehicle id="193" depart="111.95">
        <route edges="0 3"/>
    </vehicle>
    <vehicle id="194" depart="111.95">
        <route edges="1 3"/>
    </vehicle>
    <vehicle id="195" depart="113.01">
        <route edges="0 3"/>
    </vehicle>
    <vehicle id="196" depart="113.01">
        <route edges="1 3"/>
    </vehicle>
    <vehicle id="197" depart="114.08">
        <route edges="0 3"/>
    </vehicle>
    <vehicle id="198" depart="114.08">
        <route edges="1 3"/>
    </vehicle>
    <vehicle id="199" depart="115.14">
        <route edges="0 3"/>
    </vehicle>
    <vehicle id="200" depart="115.14">
        <route edges="1 3"/>
    </vehicle>
    <vehicle id="201" depart="116.20">
        <route edges="0 3"/>
    </vehicle>
    <vehicle id="202" depart="116.20">
        <route edges="1 3"/>
    </vehicle>
    <vehicle id="203" depart="117.26">
        <route edges="0 3"/>
    </vehicle>
    <vehicle id="204" depart="117.26">
        <route edges="1 3"/>
    </vehicle>
    <vehicle id="205" depart="118.32">
        <route edges="0 3"/>
    </vehicle>
    <vehicle id="206" depart="118.32">
        <route edges="1 3"/>
    </vehicle>
    <vehicle id="207" depart="119.39">
        <route edges="0 3"/>
    </vehicle>
    <vehicle id="208" depart="119.39">
        <route edges="1 3"/>
    </vehicle>
    <vehicle id="209" depart="120.45">
        <route edges="0 3"/>
    </vehicle>
    <vehicle id="210" depart="120.45">
        <route edges="1 3"/>
    </vehicle>
    <vehicle id="211" depart="121.51">
        <route edges="0 3"/>
    </vehicle>
    <vehicle id="212" depart="121.51">
        <route edges="1 3"/>
    </vehicle>
    <vehicle id="213" depart="122.57">
        <route edges="0 3"/>
    </vehicle>
    <vehicle id="214" depart="122.57">
        <route edges="1 3"/>
    </vehicle>
    <vehicle id="215" depart="123.63">
        <route edges="0 3"/>
    </vehicle>
    <vehicle id="216" depart="123.63">
        <route edges="1 3"/>
    </vehicle>
    <vehicle id="217" depart="124.70">
        <route edges="0 3"/>
    </vehicle>
    <vehicle id="218" depart="124.70">
        <route edges="1 3"/>
    </vehicle>
    <vehicle id="219" depart="125.76">
        <route edges="0 3"/>
    </vehicle>
    <vehicle id="220" depart="125.76">
        <route edges="1 3"/>
    </vehicle>
    <vehicle id="221" depart="126.82">
        <route edges="0 3"/>
    </vehicle>
    <vehicle id="222" depart="126.82">
        <route edges="1 3"/>
    </vehicle>
    <vehicle id="223" depart="127.88">
        <route edges="0 3"/>
    </vehicle>
    <vehicle id="224" depart="127.88">
        <route edges="1 3"/>
    </vehicle>
    <vehicle id="225" depart="128.94">
        <route edges="0 3"/>
    </vehicle>
    <vehicle id="226" depart="128.94">
        <route edges="1 3"/>
    </vehicle>
    <vehicle id="227" depart="130.01">
        <route edges="0 3"/>
    </vehicle>
    <vehicle id="228" depart="130.01">
        <route edges="1 3"/>
    </vehicle>
    <vehicle id="229" depart="131.07">
        <route edges="0 3"/>
    </vehicle>
    <vehicle id="230" depart="131.07">
        <route edges="1 3"/>
    </vehicle>
    <vehicle id="231" depart="132.13">
        <route edges="0 3"/>
    </vehicle>
    <vehicle id="232" depart="132.13">
        <route edges="1 3"/>
    </vehicle>
    <vehicle id="233" depart="133.19">
        <route edges="0 3"/>
    </vehicle>
    <vehicle id="234" depart="133.19">
        <route edges="1 3"/>
    </vehicle>
    <vehicle id="235" depart="134.25">
        <route edges="0 3"/>
    </vehicle>
    <vehicle id="236" depart="134.25">
        <route edges="1 3"/>
    </vehicle>
    <vehicle id="237" depart="135.32">
        <route edges="0 3"/>
    </vehicle>
    <vehicle id="238" depart="135.32">
        <route edges="1 3"/>
    </vehicle>
    <vehicle id="239" depart="136.38">
        <route edges="0 3"/>
    </vehicle>
    <vehicle id="240" depart="136.38">
        <route edges="1 3"/>
    </vehicle>
    <vehicle id="241" depart="137.44">
        <route edges="0 3"/>
    </vehicle>
    <vehicle id="242" depart="137.44">
        <route edges="1 3"/>
    </vehicle>
    <vehicle id="243" depart="138.50">
        <route edges="0 3"/>
    </vehicle>
    <vehicle id="244" depart="138.50">
        <route edges="1 3"/>
    </vehicle>
    <vehicle id="245" depart="139.56">
        <route edges="0 3"/>
    </vehicle>
    <vehicle id="246" depart="139.56">
        <route edges="1 3"/>
    </vehicle>
    <vehicle id="247" depart="140.63">
        <route edges="0 3"/>
    </vehicle>
    <vehicle id="248" depart="140.63">
        <route edges="1 3"/>
    </vehicle>
    <vehicle id="249" depart="141.69">
        <route edges="0 3"/>
    </vehicle>
    <vehicle id="250" depart="141.69">
        <route edges="1 3"/>
    </vehicle>
    <vehicle id="251" depart="142.75">
        <route edges="0 3"/>
    </vehicle>
    <vehicle id="252" depart="142.75">
        <route edges="1 3"/>
    </vehicle>
    <vehicle id="253" depart="143.81">
        <route edges="0 3"/>
    </vehicle>
    <vehicle id="254" depart="143.81">
        <route edges="1 3"/>
    </vehicle>
    <vehicle id="255" depart="144.87">
        <route edges="0 3"/>
    </vehicle>
    <vehicle id="256" depart="144.87">
        <route edges="1 3"/>
    </vehicle>
    <vehicle id="257" depart="145.94">
        <route edges="0 3"/>
    </vehicle>
    <vehicle id="258" depart="145.94">
        <route edges="1 3"/>
    </vehicle>
    <vehicle id="259" depart="147.00">
        <route edges="0 3"/>
    </vehicle>
    <vehicle id="260" depart="147.00">
        <route edges="1 3"/>
    </vehicle>
    <vehicle id="261" depart="148.06">
        <route edges="0 3"/>
    </vehicle>
    <vehicle id="262" depart="148.06">
        <route edges="1 3"/>
    </vehicle>
    <vehicle id="263" depart="149.12">
        <route edges="0 3"/>
    </vehicle>
    <vehicle id="264" depart="149.12">
        <route edges="1 3"/>
    </vehicle>
    <vehicle id="265" depart="150.18">
        <route edges="0 3"/>
    </vehicle>
    <vehicle id="266" depart="150.18">
        <route edges="1 3"/>
    </vehicle>
    <vehicle id="267" depart="151.25">
        <route edges="0 3"/>
    </vehicle>
    <vehicle id="268" depart="151.25">
        <route edges="1 3"/>
    </vehicle>
    <vehicle id="269" depart="152.31">
        <route edges="0 3"/>
    </vehicle>
    <vehicle id="270" depart="152.31">
        <route edges="1 3"/>
    </vehicle>
    <vehicle id="271" depart="153.37">
        <route edges="0 3"/>
    </vehicle>
    <vehicle id="272" depart="153.37">
        <route edges="1 3"/>
    </vehicle>
    <vehicle id="273" depart="154.43">
        <route edges="0 3"/>
    </vehicle>
    <vehicle id="274" depart="154.43">
        <route edges="1 3"/>
    </vehicle>
    <vehicle id="275" depart="155.49">
        <route edges="0 3"/>
    </vehicle>
    <vehicle id="276" depart="155.49">
        <route edges="1 3"/>
    </vehicle>
    <vehicle id="277" depart="156.56">
        <route edges="0 3"/>
    </vehicle>
    <vehicle id="278" depart="156.56">
        <route edges="1 3"/>
    </vehicle>
    <vehicle id="279" depart="157.62">
        <route edges="0 3"/>
    </vehicle>
    <vehicle id="280" depart="157.62">
        <route edges="1 3"/>
    </vehicle>
    <vehicle id="281" depart="158.68">
        <route edges="0 3"/>
    </vehicle>
    <vehicle id="282" depart="158.68">
        <route edges="1 3"/>
    </vehicle>
    <vehicle id="283" depart="159.74">
        <route edges="0 3"/>
    </vehicle>
    <vehicle id="284" depart="159.74">
        <route edges="1 3"/>
    </vehicle>
    <vehicle id="285" depart="160.80">
        <route edges="0 3"/>
    </vehicle>
    <vehicle id="286" depart="160.80">
        <route edges="1 3"/>
    </vehicle>
    <vehicle id="287" depart="161.87">
        <route edges="0 3"/>
    </vehicle>
    <vehicle id="288" depart="161.87">
        <route edges="1 3"/>
    </vehicle>
    <vehicle id="289" depart="162.93">
        <route edges="0 3"/>
    </vehicle>
    <vehicle id="290" depart="162.93">
        <route edges="1 3"/>
    </vehicle>
    <vehicle id="291" depart="163.99">
        <route edges="0 3"/>
    </vehicle>
    <vehicle id="292" depart="163.99">
        <route edges="1 3"/>
    </vehicle>
    <vehicle id="293" depart="165.05">
        <route edges="0 3"/>
    </vehicle>
    <vehicle id="294" depart="165.05">
        <route edges="1 3"/>
    </vehicle>
    <vehicle id="295" depart="166.11">
        <route edges="0 3"/>
    </vehicle>
    <vehicle id="296" depart="166.11">
        <route edges="1 3"/>
    </vehicle>
    <vehicle id="297" depart="167.18">
        <route edges="0 3"/>
    </vehicle>
    <vehicle id="298" depart="167.18">
        <route edges="1 3"/>
    </vehicle>
    <vehicle id="299" depart="168.24">
        <route edges="0 3"/>
    </vehicle>
    <vehicle id="300" depart="168.24">
        <route edges="1 3"/>
    </vehicle>
    <vehicle id="301" depart="169.30">
        <route edges="0 3"/>
    </vehicle>
    <vehicle id="302" depart="169.30">
        <route edges="1 3"/>
    </vehicle>
    <vehicle id="303" depart="170.36">
        <route edges="0 3"/>
    </vehicle>
    <vehicle id="304" depart="170.36">
        <route edges="1 3"/>
    </vehicle>
    <vehicle id="305" depart="171.42">
        <route edges="0 3"/>
    </vehicle>
    <vehicle id="306" depart="171.42">
        <route edges="1 3"/>
    </vehicle>
    <vehicle id="307" depart="172.49">
        <route edges="0 3"/>
    </vehicle>
    <vehicle id="308" depart="172.49">
        <route edges="1 3"/>
    </vehicle>
    <vehicle id="309" depart="173.55">
        <route edges="0 3"/>
    </vehicle>
    <vehicle id="310" depart="173.55">
        <route edges="1 3"/>
    </vehicle>
    <vehicle id="311" depart="174.61">
        <route edges="0 3"/>
    </vehicle>
    <vehicle id="312" depart="174.61">
        <route edges="1 3"/>
    </vehicle>
    <vehicle id="313" depart="175.67">
        <route edges="0 3"/>
    </vehicle>
    <vehicle id="314" depart="175.67">
        <route edges="1 3"/>
    </vehicle>
    <vehicle id="315" depart="176.73">
        <route edges="0 3"/>
    </vehicle>
    <vehicle id="316" depart="176.73">
        <route edges="1 3"/>
    </vehicle>
    <vehicle id="317" depart="177.80">
        <route edges="0 3"/>
    </vehicle>
    <vehicle id="318" depart="177.80">
        <route edges="1 3"/>
    </vehicle>
    <vehicle id="319" depart="178.86">
        <route edges="0 3"/>
    </vehicle>
    <vehicle id="320" depart="178.86">
        <route edges="1 3"/>
    </vehicle>
</routes>
