<?xml version="1.0" encoding="UTF-8"?>

<routes xmlns:xsi="http://www.w3.org/2001/XMLSchema-instance" xsi:noNamespaceSchemaLocation="http://sumo-sim.org/xsd/routes_file.xsd">
    <vehicle id="0" depart="0.0">
        <route edges="3 0 1" />
    </vehicle>
    <vehicle id="1" depart="5.0">
        <route edges="2 0 1" />
    </vehicle>
    <vehicle id="2" depart="5.0">
        <route edges="3 0 1" />
    </vehicle>
    <vehicle id="3" depart="5.0">
        <route edges="2 0 1" />
    </vehicle>
    <vehicle id="4" depart="5.0">
        <route edges="3 0 1" />
    </vehicle>
    <vehicle id="5" depart="5.0">
        <route edges="2 0 1" />
    </vehicle>
    <vehicle id="6" depart="5.0">
        <route edges="3 0 1" />
    </vehicle>
    <vehicle id="7" depart="5.0">
        <route edges="2 0 1" />
    </vehicle>
    <vehicle id="8" depart="5.0">
        <route edges="3 0 1" />
    </vehicle>
    <vehicle id="9" depart="5.0">
        <route edges="2 0 1" />
    </vehicle>
    -->
    <!--
    <vehicle id="1" depart="5.0">
        <route edges="2 0 1" />
    </vehicle>
    <vehicle id="2" depart="5.0">
        <route edges="0 1" />
    </vehicle>
    -->
</routes>