<?xml version="1.0" encoding="UTF-8"?>

<!-- generated on Thu Sep 17 15:53:33 2015 by SUMO duarouter Version 0.24.0
<?xml version="1.0" encoding="UTF-8"?>

<configuration xmlns:xsi="http://www.w3.org/2001/XMLSchema-instance" xsi:noNamespaceSchemaLocation="http://sumo.dlr.de/xsd/duarouterConfiguration.xsd">

    <input>
        <net-file value="highway-straight/highway-straight.net.xml"/>
        <flow-files value="highway-straight/highway-straight.flows.xml"/>
    </input>

    <output>
        <output-file value="highway-straight/highway-straight.rou.xml"/>
    </output>

    <processing>
        <ignore-errors value="true"/>
        <routing-algorithm value="astar"/>
    </processing>

    <report>
        <no-warnings value="true"/>
    </report>

</configuration>
-->

<routes xmlns:xsi="http://www.w3.org/2001/XMLSchema-instance" xsi:noNamespaceSchemaLocation="http://sumo.dlr.de/xsd/routes_file.xsd">
    <vehicle id="1" depart="0.00">
        <route edges="0"/>
    </vehicle>
    <vehicle id="2" depart="0.72">
        <route edges="0"/>
    </vehicle>
    <vehicle id="3" depart="1.44">
        <route edges="0"/>
    </vehicle>
    <vehicle id="4" depart="2.16">
        <route edges="0"/>
    </vehicle>
    <vehicle id="5" depart="2.88">
        <route edges="0"/>
    </vehicle>
    <vehicle id="6" depart="3.60">
        <route edges="0"/>
    </vehicle>
    <vehicle id="7" depart="4.32">
        <route edges="0"/>
    </vehicle>
    <vehicle id="8" depart="5.00">
        <route edges="0"/>
    </vehicle>
    <vehicle id="9" depart="5.04">
        <route edges="0"/>
    </vehicle>
    <vehicle id="10" depart="5.70">
        <route edges="0"/>
    </vehicle>
    <vehicle id="11" depart="5.76">
        <route edges="0"/>
    </vehicle>
    <vehicle id="12" depart="6.40">
        <route edges="0"/>
    </vehicle>
    <vehicle id="13" depart="6.48">
        <route edges="0"/>
    </vehicle>
    <vehicle id="14" depart="7.10">
        <route edges="0"/>
    </vehicle>
    <vehicle id="15" depart="7.20">
        <route edges="0"/>
    </vehicle>
    <vehicle id="16" depart="7.80">
        <route edges="0"/>
    </vehicle>
    <vehicle id="17" depart="7.92">
        <route edges="0"/>
    </vehicle>
    <vehicle id="18" depart="8.50">
        <route edges="0"/>
    </vehicle>
    <vehicle id="19" depart="8.64">
        <route edges="0"/>
    </vehicle>
    <vehicle id="20" depart="9.20">
        <route edges="0"/>
    </vehicle>
    <vehicle id="21" depart="9.36">
        <route edges="0"/>
    </vehicle>
    <vehicle id="22" depart="9.90">
        <route edges="0"/>
    </vehicle>
    <vehicle id="23" depart="10.00">
        <route edges="0"/>
    </vehicle>
    <vehicle id="24" depart="10.08">
        <route edges="0"/>
    </vehicle>
    <vehicle id="25" depart="10.60">
        <route edges="0"/>
    </vehicle>
    <vehicle id="26" depart="10.80">
        <route edges="0"/>
    </vehicle>
    <vehicle id="27" depart="11.00">
        <route edges="0"/>
    </vehicle>
    <vehicle id="28" depart="11.30">
        <route edges="0"/>
    </vehicle>
    <vehicle id="29" depart="11.52">
        <route edges="0"/>
    </vehicle>
    <vehicle id="30" depart="12.00">
        <route edges="0"/>
    </vehicle>
    <vehicle id="31" depart="12.00">
        <route edges="0"/>
    </vehicle>
    <vehicle id="32" depart="12.24">
        <route edges="0"/>
    </vehicle>
    <vehicle id="33" depart="12.70">
        <route edges="0"/>
    </vehicle>
    <vehicle id="34" depart="12.96">
        <route edges="0"/>
    </vehicle>
    <vehicle id="35" depart="13.40">
        <route edges="0"/>
    </vehicle>
    <vehicle id="36" depart="13.68">
        <route edges="0"/>
    </vehicle>
    <vehicle id="37" depart="14.10">
        <route edges="0"/>
    </vehicle>
    <vehicle id="38" depart="14.40">
        <route edges="0"/>
    </vehicle>
    <vehicle id="39" depart="14.80">
        <route edges="0"/>
    </vehicle>
    <vehicle id="40" depart="15.12">
        <route edges="0"/>
    </vehicle>
    <vehicle id="41" depart="15.50">
        <route edges="0"/>
    </vehicle>
    <vehicle id="42" depart="15.84">
        <route edges="0"/>
    </vehicle>
    <vehicle id="43" depart="16.20">
        <route edges="0"/>
    </vehicle>
    <vehicle id="44" depart="16.20">
        <route edges="0"/>
    </vehicle>
    <vehicle id="45" depart="16.56">
        <route edges="0"/>
    </vehicle>
    <vehicle id="46" depart="16.90">
        <route edges="0"/>
    </vehicle>
    <vehicle id="47" depart="17.28">
        <route edges="0"/>
    </vehicle>
    <vehicle id="48" depart="17.60">
        <route edges="0"/>
    </vehicle>
    <vehicle id="49" depart="18.00">
        <route edges="0"/>
    </vehicle>
    <vehicle id="50" depart="18.00">
        <route edges="0"/>
    </vehicle>
    <vehicle id="51" depart="18.30">
        <route edges="0"/>
    </vehicle>
    <vehicle id="52" depart="18.50">
        <route edges="0"/>
    </vehicle>
    <vehicle id="53" depart="18.72">
        <route edges="0"/>
    </vehicle>
    <vehicle id="54" depart="19.00">
        <route edges="0"/>
    </vehicle>
    <vehicle id="55" depart="19.44">
        <route edges="0"/>
    </vehicle>
    <vehicle id="56" depart="19.70">
        <route edges="0"/>
    </vehicle>
    <vehicle id="57" depart="20.16">
        <route edges="0"/>
    </vehicle>
    <vehicle id="58" depart="20.40">
        <route edges="0"/>
    </vehicle>
    <vehicle id="59" depart="20.40">
        <route edges="0"/>
    </vehicle>
    <vehicle id="60" depart="20.88">
        <route edges="0"/>
    </vehicle>
    <vehicle id="61" depart="21.10">
        <route edges="0"/>
    </vehicle>
    <vehicle id="62" depart="21.24">
        <route edges="0"/>
    </vehicle>
    <vehicle id="63" depart="21.60">
        <route edges="0"/>
    </vehicle>
    <vehicle id="64" depart="21.80">
        <route edges="0"/>
    </vehicle>
    <vehicle id="65" depart="22.32">
        <route edges="0"/>
    </vehicle>
    <vehicle id="66" depart="22.50">
        <route edges="0"/>
    </vehicle>
    <vehicle id="67" depart="23.04">
        <route edges="0"/>
    </vehicle>
    <vehicle id="68" depart="23.20">
        <route edges="0"/>
    </vehicle>
    <vehicle id="69" depart="23.76">
        <route edges="0"/>
    </vehicle>
    <vehicle id="70" depart="23.90">
        <route edges="0"/>
    </vehicle>
    <vehicle id="71" depart="24.48">
        <route edges="0"/>
    </vehicle>
    <vehicle id="72" depart="24.48">
        <route edges="0"/>
    </vehicle>
    <vehicle id="73" depart="24.60">
        <route edges="0"/>
    </vehicle>
    <vehicle id="74" depart="24.60">
        <route edges="0"/>
    </vehicle>
    <vehicle id="75" depart="25.20">
        <route edges="0"/>
    </vehicle>
    <vehicle id="76" depart="25.30">
        <route edges="0"/>
    </vehicle>
    <vehicle id="77" depart="25.92">
        <route edges="0"/>
    </vehicle>
    <vehicle id="78" depart="26.00">
        <route edges="0"/>
    </vehicle>
    <vehicle id="79" depart="26.64">
        <route edges="0"/>
    </vehicle>
    <vehicle id="80" depart="26.70">
        <route edges="0"/>
    </vehicle>
    <vehicle id="81" depart="27.00">
        <route edges="0"/>
    </vehicle>
    <vehicle id="82" depart="27.36">
        <route edges="0"/>
    </vehicle>
    <vehicle id="83" depart="27.40">
        <route edges="0"/>
    </vehicle>
    <vehicle id="84" depart="27.72">
        <route edges="0"/>
    </vehicle>
    <vehicle id="85" depart="27.90">
        <route edges="0"/>
    </vehicle>
    <vehicle id="86" depart="28.08">
        <route edges="0"/>
    </vehicle>
    <vehicle id="87" depart="28.10">
        <route edges="0"/>
    </vehicle>
    <vehicle id="88" depart="28.80">
        <route edges="0"/>
    </vehicle>
    <vehicle id="89" depart="28.80">
        <route edges="0"/>
    </vehicle>
    <vehicle id="90" depart="28.80">
        <route edges="0"/>
    </vehicle>
    <vehicle id="91" depart="29.50">
        <route edges="0"/>
    </vehicle>
    <vehicle id="92" depart="29.52">
        <route edges="0"/>
    </vehicle>
    <vehicle id="93" depart="30.20">
        <route edges="0"/>
    </vehicle>
    <vehicle id="94" depart="30.24">
        <route edges="0"/>
    </vehicle>
    <vehicle id="95" depart="30.90">
        <route edges="0"/>
    </vehicle>
    <vehicle id="96" depart="30.96">
        <route edges="0"/>
    </vehicle>
    <vehicle id="97" depart="30.96">
        <route edges="0"/>
    </vehicle>
    <vehicle id="98" depart="31.60">
        <route edges="0"/>
    </vehicle>
    <vehicle id="99" depart="31.68">
        <route edges="0"/>
    </vehicle>
    <vehicle id="100" depart="32.30">
        <route edges="0"/>
    </vehicle>
    <vehicle id="101" depart="32.40">
        <route edges="0"/>
    </vehicle>
    <vehicle id="102" depart="33.00">
        <route edges="0"/>
    </vehicle>
    <vehicle id="103" depart="33.00">
        <route edges="0"/>
    </vehicle>
    <vehicle id="104" depart="33.12">
        <route edges="0"/>
    </vehicle>
    <vehicle id="105" depart="33.70">
        <route edges="0"/>
    </vehicle>
    <vehicle id="106" depart="33.84">
        <route edges="0"/>
    </vehicle>
    <vehicle id="107" depart="34.20">
        <route edges="0"/>
    </vehicle>
    <vehicle id="108" depart="34.40">
        <route edges="0"/>
    </vehicle>
    <vehicle id="109" depart="34.56">
        <route edges="0"/>
    </vehicle>
    <vehicle id="110" depart="35.10">
        <route edges="0"/>
    </vehicle>
    <vehicle id="111" depart="35.28">
        <route edges="0"/>
    </vehicle>
    <vehicle id="112" depart="35.50">
        <route edges="0"/>
    </vehicle>
    <vehicle id="113" depart="35.80">
        <route edges="0"/>
    </vehicle>
    <vehicle id="114" depart="36.00">
        <route edges="0"/>
    </vehicle>
    <vehicle id="115" depart="36.50">
        <route edges="0"/>
    </vehicle>
    <vehicle id="116" depart="36.72">
        <route edges="0"/>
    </vehicle>
    <vehicle id="117" depart="37.20">
        <route edges="0"/>
    </vehicle>
    <vehicle id="118" depart="37.20">
        <route edges="0"/>
    </vehicle>
    <vehicle id="119" depart="37.44">
        <route edges="0"/>
    </vehicle>
    <vehicle id="120" depart="37.44">
        <route edges="0"/>
    </vehicle>
    <vehicle id="121" depart="37.90">
        <route edges="0"/>
    </vehicle>
    <vehicle id="122" depart="38.16">
        <route edges="0"/>
    </vehicle>
    <vehicle id="123" depart="38.60">
        <route edges="0"/>
    </vehicle>
    <vehicle id="124" depart="38.88">
        <route edges="0"/>
    </vehicle>
    <vehicle id="125" depart="39.30">
        <route edges="0"/>
    </vehicle>
    <vehicle id="126" depart="39.60">
        <route edges="0"/>
    </vehicle>
    <vehicle id="127" depart="40.00">
        <route edges="0"/>
    </vehicle>
    <vehicle id="128" depart="40.32">
        <route edges="0"/>
    </vehicle>
    <vehicle id="129" depart="40.68">
        <route edges="0"/>
    </vehicle>
    <vehicle id="130" depart="40.70">
        <route edges="0"/>
    </vehicle>
    <vehicle id="131" depart="41.04">
        <route edges="0"/>
    </vehicle>
    <vehicle id="132" depart="41.40">
        <route edges="0"/>
    </vehicle>
    <vehicle id="133" depart="41.40">
        <route edges="0"/>
    </vehicle>
    <vehicle id="134" depart="41.76">
        <route edges="0"/>
    </vehicle>
    <vehicle id="135" depart="42.10">
        <route edges="0"/>
    </vehicle>
    <vehicle id="136" depart="42.48">
        <route edges="0"/>
    </vehicle>
    <vehicle id="137" depart="42.80">
        <route edges="0"/>
    </vehicle>
    <vehicle id="138" depart="43.20">
        <route edges="0"/>
    </vehicle>
    <vehicle id="139" depart="43.50">
        <route edges="0"/>
    </vehicle>
    <vehicle id="140" depart="43.92">
        <route edges="0"/>
    </vehicle>
    <vehicle id="141" depart="43.92">
        <route edges="0"/>
    </vehicle>
    <vehicle id="142" depart="44.00">
        <route edges="0"/>
    </vehicle>
    <vehicle id="143" depart="44.20">
        <route edges="0"/>
    </vehicle>
    <vehicle id="144" depart="44.64">
        <route edges="0"/>
    </vehicle>
    <vehicle id="145" depart="44.80">
        <route edges="0"/>
    </vehicle>
    <vehicle id="146" depart="44.90">
        <route edges="0"/>
    </vehicle>
    <vehicle id="147" depart="45.36">
        <route edges="0"/>
    </vehicle>
    <vehicle id="148" depart="45.60">
        <route edges="0"/>
    </vehicle>
    <vehicle id="149" depart="45.60">
        <route edges="0"/>
    </vehicle>
    <vehicle id="150" depart="46.08">
        <route edges="0"/>
    </vehicle>
    <vehicle id="151" depart="46.30">
        <route edges="0"/>
    </vehicle>
    <vehicle id="152" depart="46.80">
        <route edges="0"/>
    </vehicle>
    <vehicle id="153" depart="47.00">
        <route edges="0"/>
    </vehicle>
    <vehicle id="154" depart="47.16">
        <route edges="0"/>
    </vehicle>
    <vehicle id="155" depart="47.52">
        <route edges="0"/>
    </vehicle>
    <vehicle id="156" depart="47.70">
        <route edges="0"/>
    </vehicle>
    <vehicle id="157" depart="48.24">
        <route edges="0"/>
    </vehicle>
    <vehicle id="158" depart="48.40">
        <route edges="0"/>
    </vehicle>
    <vehicle id="159" depart="48.96">
        <route edges="0"/>
    </vehicle>
    <vehicle id="160" depart="49.10">
        <route edges="0"/>
    </vehicle>
    <vehicle id="161" depart="49.68">
        <route edges="0"/>
    </vehicle>
    <vehicle id="162" depart="49.80">
        <route edges="0"/>
    </vehicle>
    <vehicle id="163" depart="49.80">
        <route edges="0"/>
    </vehicle>
    <vehicle id="164" depart="50.40">
        <route edges="0"/>
    </vehicle>
    <vehicle id="165" depart="50.40">
        <route edges="0"/>
    </vehicle>
    <vehicle id="166" depart="50.50">
        <route edges="0"/>
    </vehicle>
    <vehicle id="167" depart="51.12">
        <route edges="0"/>
    </vehicle>
    <vehicle id="168" depart="51.20">
        <route edges="0"/>
    </vehicle>
    <vehicle id="169" depart="51.84">
        <route edges="0"/>
    </vehicle>
    <vehicle id="170" depart="51.90">
        <route edges="0"/>
    </vehicle>
    <vehicle id="171" depart="52.50">
        <route edges="0"/>
    </vehicle>
    <vehicle id="172" depart="52.56">
        <route edges="0"/>
    </vehicle>
    <vehicle id="173" depart="52.60">
        <route edges="0"/>
    </vehicle>
    <vehicle id="174" depart="53.28">
        <route edges="0"/>
    </vehicle>
    <vehicle id="175" depart="53.30">
        <route edges="0"/>
    </vehicle>
    <vehicle id="176" depart="53.64">
        <route edges="0"/>
    </vehicle>
    <vehicle id="177" depart="54.00">
        <route edges="0"/>
    </vehicle>
    <vehicle id="178" depart="54.00">
        <route edges="0"/>
    </vehicle>
    <vehicle id="179" depart="54.00">
        <route edges="0"/>
    </vehicle>
    <vehicle id="180" depart="54.70">
        <route edges="0"/>
    </vehicle>
    <vehicle id="181" depart="54.72">
        <route edges="0"/>
    </vehicle>
    <vehicle id="182" depart="55.40">
        <route edges="0"/>
    </vehicle>
    <vehicle id="183" depart="55.44">
        <route edges="0"/>
    </vehicle>
    <vehicle id="184" depart="56.10">
        <route edges="0"/>
    </vehicle>
    <vehicle id="185" depart="56.16">
        <route edges="0"/>
    </vehicle>
    <vehicle id="186" depart="56.80">
        <route edges="0"/>
    </vehicle>
    <vehicle id="187" depart="56.88">
        <route edges="0"/>
    </vehicle>
    <vehicle id="188" depart="56.88">
        <route edges="0"/>
    </vehicle>
    <vehicle id="189" depart="57.50">
        <route edges="0"/>
    </vehicle>
    <vehicle id="190" depart="57.60">
        <route edges="0"/>
    </vehicle>
    <vehicle id="191" depart="58.20">
        <route edges="0"/>
    </vehicle>
    <vehicle id="192" depart="58.20">
        <route edges="0"/>
    </vehicle>
    <vehicle id="193" depart="58.32">
        <route edges="0"/>
    </vehicle>
    <vehicle id="194" depart="58.90">
        <route edges="0"/>
    </vehicle>
    <vehicle id="195" depart="59.04">
        <route edges="0"/>
    </vehicle>
    <vehicle id="196" depart="59.60">
        <route edges="0"/>
    </vehicle>
    <vehicle id="197" depart="59.76">
        <route edges="0"/>
    </vehicle>
    <vehicle id="198" depart="60.12">
        <route edges="0"/>
    </vehicle>
    <vehicle id="199" depart="60.30">
        <route edges="0"/>
    </vehicle>
    <vehicle id="200" depart="60.48">
        <route edges="0"/>
    </vehicle>
    <vehicle id="201" depart="61.00">
        <route edges="0"/>
    </vehicle>
    <vehicle id="202" depart="61.00">
        <route edges="0"/>
    </vehicle>
    <vehicle id="203" depart="61.20">
        <route edges="0"/>
    </vehicle>
    <vehicle id="204" depart="61.70">
        <route edges="0"/>
    </vehicle>
    <vehicle id="205" depart="61.70">
        <route edges="0"/>
    </vehicle>
    <vehicle id="206" depart="61.92">
        <route edges="0"/>
    </vehicle>
    <vehicle id="207" depart="62.40">
        <route edges="0"/>
    </vehicle>
    <vehicle id="208" depart="62.40">
        <route edges="0"/>
    </vehicle>
    <vehicle id="209" depart="62.64">
        <route edges="0"/>
    </vehicle>
    <vehicle id="210" depart="63.10">
        <route edges="0"/>
    </vehicle>
    <vehicle id="211" depart="63.36">
        <route edges="0"/>
    </vehicle>
    <vehicle id="212" depart="63.36">
        <route edges="0"/>
    </vehicle>
    <vehicle id="213" depart="63.80">
        <route edges="0"/>
    </vehicle>
    <vehicle id="214" depart="64.08">
        <route edges="0"/>
    </vehicle>
    <vehicle id="215" depart="64.50">
        <route edges="0"/>
    </vehicle>
    <vehicle id="216" depart="64.80">
        <route edges="0"/>
    </vehicle>
    <vehicle id="217" depart="65.20">
        <route edges="0"/>
    </vehicle>
    <vehicle id="218" depart="65.52">
        <route edges="0"/>
    </vehicle>
    <vehicle id="219" depart="65.90">
        <route edges="0"/>
    </vehicle>
    <vehicle id="220" depart="66.24">
        <route edges="0"/>
    </vehicle>
    <vehicle id="221" depart="66.60">
        <route edges="0"/>
    </vehicle>
    <vehicle id="222" depart="66.60">
        <route edges="0"/>
    </vehicle>
    <vehicle id="223" depart="66.60">
        <route edges="0"/>
    </vehicle>
    <vehicle id="224" depart="66.96">
        <route edges="0"/>
    </vehicle>
    <vehicle id="225" depart="67.30">
        <route edges="0"/>
    </vehicle>
    <vehicle id="226" depart="67.68">
        <route edges="0"/>
    </vehicle>
    <vehicle id="227" depart="68.00">
        <route edges="0"/>
    </vehicle>
    <vehicle id="228" depart="68.40">
        <route edges="0"/>
    </vehicle>
    <vehicle id="229" depart="68.70">
        <route edges="0"/>
    </vehicle>
    <vehicle id="230" depart="69.12">
        <route edges="0"/>
    </vehicle>
    <vehicle id="231" depart="69.40">
        <route edges="0"/>
    </vehicle>
    <vehicle id="232" depart="69.50">
        <route edges="0"/>
    </vehicle>
    <vehicle id="233" depart="69.84">
        <route edges="0"/>
    </vehicle>
    <vehicle id="234" depart="69.84">
        <route edges="0"/>
    </vehicle>
    <vehicle id="235" depart="70.10">
        <route edges="0"/>
    </vehicle>
    <vehicle id="236" depart="70.56">
        <route edges="0"/>
    </vehicle>
    <vehicle id="237" depart="70.80">
        <route edges="0"/>
    </vehicle>
    <vehicle id="238" depart="70.80">
        <route edges="0"/>
    </vehicle>
    <vehicle id="239" depart="71.28">
        <route edges="0"/>
    </vehicle>
    <vehicle id="240" depart="71.50">
        <route edges="0"/>
    </vehicle>
    <vehicle id="241" depart="72.00">
        <route edges="0"/>
    </vehicle>
    <vehicle id="242" depart="72.20">
        <route edges="0"/>
    </vehicle>
    <vehicle id="243" depart="72.72">
        <route edges="0"/>
    </vehicle>
    <vehicle id="244" depart="72.90">
        <route edges="0"/>
    </vehicle>
    <vehicle id="245" depart="73.08">
        <route edges="0"/>
    </vehicle>
    <vehicle id="246" depart="73.44">
        <route edges="0"/>
    </vehicle>
    <vehicle id="247" depart="73.60">
        <route edges="0"/>
    </vehicle>
    <vehicle id="248" depart="74.16">
        <route edges="0"/>
    </vehicle>
    <vehicle id="249" depart="74.30">
        <route edges="0"/>
    </vehicle>
    <vehicle id="250" depart="74.88">
        <route edges="0"/>
    </vehicle>
    <vehicle id="251" depart="75.00">
        <route edges="0"/>
    </vehicle>
    <vehicle id="252" depart="75.00">
        <route edges="0"/>
    </vehicle>
    <vehicle id="253" depart="75.60">
        <route edges="0"/>
    </vehicle>
    <vehicle id="254" depart="75.70">
        <route edges="0"/>
    </vehicle>
    <vehicle id="255" depart="76.32">
        <route edges="0"/>
    </vehicle>
    <vehicle id="256" depart="76.32">
        <route edges="0"/>
    </vehicle>
    <vehicle id="257" depart="76.40">
        <route edges="0"/>
    </vehicle>
    <vehicle id="258" depart="77.04">
        <route edges="0"/>
    </vehicle>
    <vehicle id="259" depart="77.10">
        <route edges="0"/>
    </vehicle>
    <vehicle id="260" depart="77.76">
        <route edges="0"/>
    </vehicle>
    <vehicle id="261" depart="77.80">
        <route edges="0"/>
    </vehicle>
    <vehicle id="262" depart="78.00">
        <route edges="0"/>
    </vehicle>
    <vehicle id="263" depart="78.48">
        <route edges="0"/>
    </vehicle>
    <vehicle id="264" depart="78.50">
        <route edges="0"/>
    </vehicle>
    <vehicle id="265" depart="78.60">
        <route edges="0"/>
    </vehicle>
    <vehicle id="266" depart="79.20">
        <route edges="0"/>
    </vehicle>
    <vehicle id="267" depart="79.20">
        <route edges="0"/>
    </vehicle>
    <vehicle id="268" depart="79.20">
        <route edges="0"/>
    </vehicle>
    <vehicle id="269" depart="79.56">
        <route edges="0"/>
    </vehicle>
    <vehicle id="270" depart="79.90">
        <route edges="0"/>
    </vehicle>
    <vehicle id="271" depart="79.92">
        <route edges="0"/>
    </vehicle>
    <vehicle id="272" depart="80.60">
        <route edges="0"/>
    </vehicle>
    <vehicle id="273" depart="80.64">
        <route edges="0"/>
    </vehicle>
    <vehicle id="274" depart="81.30">
        <route edges="0"/>
    </vehicle>
    <vehicle id="275" depart="81.36">
        <route edges="0"/>
    </vehicle>
    <vehicle id="276" depart="82.00">
        <route edges="0"/>
    </vehicle>
    <vehicle id="277" depart="82.08">
        <route edges="0"/>
    </vehicle>
    <vehicle id="278" depart="82.70">
        <route edges="0"/>
    </vehicle>
    <vehicle id="279" depart="82.80">
        <route edges="0"/>
    </vehicle>
    <vehicle id="280" depart="82.80">
        <route edges="0"/>
    </vehicle>
    <vehicle id="281" depart="83.40">
        <route edges="0"/>
    </vehicle>
    <vehicle id="282" depart="83.40">
        <route edges="0"/>
    </vehicle>
    <vehicle id="283" depart="83.52">
        <route edges="0"/>
    </vehicle>
    <vehicle id="284" depart="84.10">
        <route edges="0"/>
    </vehicle>
    <vehicle id="285" depart="84.24">
        <route edges="0"/>
    </vehicle>
    <vehicle id="286" depart="84.80">
        <route edges="0"/>
    </vehicle>
    <vehicle id="287" depart="84.96">
        <route edges="0"/>
    </vehicle>
    <vehicle id="288" depart="85.50">
        <route edges="0"/>
    </vehicle>
    <vehicle id="289" depart="85.68">
        <route edges="0"/>
    </vehicle>
    <vehicle id="290" depart="86.04">
        <route edges="0"/>
    </vehicle>
    <vehicle id="291" depart="86.20">
        <route edges="0"/>
    </vehicle>
    <vehicle id="292" depart="86.40">
        <route edges="0"/>
    </vehicle>
    <vehicle id="293" depart="86.50">
        <route edges="0"/>
    </vehicle>
    <vehicle id="294" depart="86.90">
        <route edges="0"/>
    </vehicle>
    <vehicle id="295" depart="87.12">
        <route edges="0"/>
    </vehicle>
    <vehicle id="296" depart="87.60">
        <route edges="0"/>
    </vehicle>
    <vehicle id="297" depart="87.60">
        <route edges="0"/>
    </vehicle>
    <vehicle id="298" depart="87.84">
        <route edges="0"/>
    </vehicle>
    <vehicle id="299" depart="88.30">
        <route edges="0"/>
    </vehicle>
    <vehicle id="300" depart="88.56">
        <route edges="0"/>
    </vehicle>
    <vehicle id="301" depart="89.00">
        <route edges="0"/>
    </vehicle>
    <vehicle id="302" depart="89.28">
        <route edges="0"/>
    </vehicle>
    <vehicle id="303" depart="89.28">
        <route edges="0"/>
    </vehicle>
    <vehicle id="304" depart="89.70">
        <route edges="0"/>
    </vehicle>
    <vehicle id="305" depart="90.00">
        <route edges="0"/>
    </vehicle>
    <vehicle id="306" depart="90.40">
        <route edges="0"/>
    </vehicle>
    <vehicle id="307" depart="90.72">
        <route edges="0"/>
    </vehicle>
    <vehicle id="308" depart="91.10">
        <route edges="0"/>
    </vehicle>
    <vehicle id="309" depart="91.44">
        <route edges="0"/>
    </vehicle>
    <vehicle id="310" depart="91.80">
        <route edges="0"/>
    </vehicle>
    <vehicle id="311" depart="91.80">
        <route edges="0"/>
    </vehicle>
    <vehicle id="312" depart="92.16">
        <route edges="0"/>
    </vehicle>
    <vehicle id="313" depart="92.50">
        <route edges="0"/>
    </vehicle>
    <vehicle id="314" depart="92.52">
        <route edges="0"/>
    </vehicle>
    <vehicle id="315" depart="92.88">
        <route edges="0"/>
    </vehicle>
    <vehicle id="316" depart="93.20">
        <route edges="0"/>
    </vehicle>
    <vehicle id="317" depart="93.60">
        <route edges="0"/>
    </vehicle>
    <vehicle id="318" depart="93.90">
        <route edges="0"/>
    </vehicle>
    <vehicle id="319" depart="94.32">
        <route edges="0"/>
    </vehicle>
    <vehicle id="320" depart="94.60">
        <route edges="0"/>
    </vehicle>
    <vehicle id="321" depart="95.00">
        <route edges="0"/>
    </vehicle>
    <vehicle id="322" depart="95.04">
        <route edges="0"/>
    </vehicle>
    <vehicle id="323" depart="95.30">
        <route edges="0"/>
    </vehicle>
    <vehicle id="324" depart="95.50">
        <route edges="0"/>
    </vehicle>
    <vehicle id="325" depart="95.76">
        <route edges="0"/>
    </vehicle>
    <vehicle id="326" depart="95.76">
        <route edges="0"/>
    </vehicle>
    <vehicle id="327" depart="96.00">
        <route edges="0"/>
    </vehicle>
    <vehicle id="328" depart="96.00">
        <route edges="0"/>
    </vehicle>
    <vehicle id="329" depart="96.48">
        <route edges="0"/>
    </vehicle>
    <vehicle id="330" depart="96.70">
        <route edges="0"/>
    </vehicle>
    <vehicle id="331" depart="97.20">
        <route edges="0"/>
    </vehicle>
    <vehicle id="332" depart="97.40">
        <route edges="0"/>
    </vehicle>
    <vehicle id="333" depart="97.92">
        <route edges="0"/>
    </vehicle>
    <vehicle id="334" depart="98.10">
        <route edges="0"/>
    </vehicle>
    <vehicle id="335" depart="98.64">
        <route edges="0"/>
    </vehicle>
    <vehicle id="336" depart="98.80">
        <route edges="0"/>
    </vehicle>
    <vehicle id="337" depart="99.00">
        <route edges="0"/>
    </vehicle>
    <vehicle id="338" depart="99.36">
        <route edges="0"/>
    </vehicle>
    <vehicle id="339" depart="99.50">
        <route edges="0"/>
    </vehicle>
    <vehicle id="340" depart="100.08">
        <route edges="0"/>
    </vehicle>
    <vehicle id="341" depart="100.20">
        <route edges="0"/>
    </vehicle>
    <vehicle id="342" depart="100.20">
        <route edges="0"/>
    </vehicle>
    <vehicle id="343" depart="100.80">
        <route edges="0"/>
    </vehicle>
    <vehicle id="344" depart="100.90">
        <route edges="0"/>
    </vehicle>
    <vehicle id="345" depart="101.52">
        <route edges="0"/>
    </vehicle>
    <vehicle id="346" depart="101.60">
        <route edges="0"/>
    </vehicle>
    <vehicle id="347" depart="102.24">
        <route edges="0"/>
    </vehicle>
    <vehicle id="348" depart="102.24">
        <route edges="0"/>
    </vehicle>
    <vehicle id="349" depart="102.30">
        <route edges="0"/>
    </vehicle>
    <vehicle id="350" depart="102.96">
        <route edges="0"/>
    </vehicle>
    <vehicle id="351" depart="103.00">
        <route edges="0"/>
    </vehicle>
    <vehicle id="352" depart="103.50">
        <route edges="0"/>
    </vehicle>
    <vehicle id="353" depart="103.68">
        <route edges="0"/>
    </vehicle>
    <vehicle id="354" depart="103.70">
        <route edges="0"/>
    </vehicle>
    <vehicle id="355" depart="104.40">
        <route edges="0"/>
    </vehicle>
    <vehicle id="356" depart="104.40">
        <route edges="0"/>
    </vehicle>
    <vehicle id="357" depart="104.40">
        <route edges="0"/>
    </vehicle>
    <vehicle id="358" depart="105.10">
        <route edges="0"/>
    </vehicle>
    <vehicle id="359" depart="105.12">
        <route edges="0"/>
    </vehicle>
    <vehicle id="360" depart="105.48">
        <route edges="0"/>
    </vehicle>
    <vehicle id="361" depart="105.80">
        <route edges="0"/>
    </vehicle>
    <vehicle id="362" depart="105.84">
        <route edges="0"/>
    </vehicle>
    <vehicle id="363" depart="106.50">
        <route edges="0"/>
    </vehicle>
    <vehicle id="364" depart="106.56">
        <route edges="0"/>
    </vehicle>
    <vehicle id="365" depart="107.20">
        <route edges="0"/>