<?xml version="1.0" encoding="UTF-8"?>

<net version="0.13" xmlns:xsi="http://www.w3.org/2001/XMLSchema-instance" xsi:noNamespaceSchemaLocation="http://sumo-sim.org/xsd/net_file.xsd">

    <location netOffset="0.0,0.0" convBoundary="0.00,0.00,665.37,811.53" origBoundary="14.388600,50.068250,14.516399,50.128835" projParameter="+proj=utm +zone=33 +ellps=WGS84 +datum=WGS84 +units=m +no_defs"/>


    <edge id="0" from="0" to="1" priority="7" type="highway.secondary" shape="">
        <lane id="0_0" index="0" speed="42" length="16.72" shape=" 4,200 4,0 2,0 2,200"/>
        <lane id="0_1" index="1" speed="42" length="16.72" shape="2,0 2,200 4,200 4,0"/>
    </edge>
    <edge id="1" from="1" to="0" priority="7" type="highway.secondary" shape="">
        <lane id="1_0" index="0" speed="42" length="16.72" shape="0,0 0,200 2,200 2,0"/>
        <lane id="1_1" index="1" speed="42" length="16.72" shape="2,0 2,200.0 4,200.0 4,0"/>
    </edge>
  </net>
