<?xml version="1.0" encoding="UTF-8"?>

<!-- generated on 07/12/18 09:46:15 by SUMO duarouter Version 0.32.0
<?xml version="1.0" encoding="UTF-8"?>

<configuration xmlns:xsi="http://www.w3.org/2001/XMLSchema-instance" xsi:noNamespaceSchemaLocation="http://sumo.dlr.de/xsd/duarouterConfiguration.xsd">

    <input>
        <net-file value="skoda-parking\skoda-parking.net.xml"/>
        <route-files value="skoda-parking\skoda-parking.trips.xml"/>
    </input>

    <output>
        <output-file value="skoda-parking\skoda-parking.rou.xml"/>
        <alternatives-output value="skoda-parking\skoda-parking.rou.alt.xml"/>
    </output>

    <processing>
        <ignore-errors value="true"/>
        <routing-algorithm value="astar"/>
    </processing>

</configuration>
-->

<routes xmlns:xsi="http://www.w3.org/2001/XMLSchema-instance" xsi:noNamespaceSchemaLocation="http://sumo.dlr.de/xsd/routes_file.xsd">
    <vehicle id="0" depart="0.00">
        <route edges="109161038#1 109161038#2 109161038#3 489342530#0 489342530#1 489440459#0 489440459#1 489440462#0 489440462#1 489532959#0"/>
    </vehicle>
    <vehicle id="2" depart="2.00">
        <route edges="109161038#0 -361288430 109161038#2 109161038#3 489342530#0"/>
    </vehicle>
    <vehicle id="3" depart="3.00">
        <route edges="489532958#7 489532958#8 489532957#0 489532957#1 109161038#2 489342528 489532950#0 489532950#1 489532950#2 -489532953"/>
    </vehicle>
    <vehicle id="5" depart="5.00">
        <route edges="489440467#0 489440467#1 489532958#7 489532958#8 489532957#0 489532957#1 109161038#2 489342528 489532950#0 489532950#1 489532950#2 489532950#3 489532950#4 -489532951"/>
    </vehicle>
    <vehicle id="7" depart="7.00">
        <route edges="-109161038#1 -361288430 109161038#2 109161038#3 489342530#0 489342530#1 489440461#0 489440461#1"/>
    </vehicle>
    <vehicle id="8" depart="8.00">
        <route edges="109161038#3 489342530#0 489440452#0 489440452#1 489440452#2 489440452#3 489440452#4 489440452#5 489440452#6 489440452#7"/>
    </vehicle>
    <vehicle id="10" depart="10.00">
        <route edges="489440453#0 489440453#1 489532958#0 489532958#1 489532958#2 489532958#3 489532958#4 489532958#5 489532958#6 489532958#7 489532958#8 489532957#0 489532957#1 109161038#2 109161038#3 109161038#4 -109161039#0"/>
    </vehicle>
    <vehicle id="11" depart="11.00">
        <route edges="109161038#0 -361288430 109161038#2 109161038#3 489342530#0 489342530#1 489440459#0 489440460 489532961 -489342530#0"/>
    </vehicle>
    <vehicle id="13" depart="13.00">
        <route edges="489532958#1 489532958#2 489532958#3 489532958#4 489532958#5 489532958#6 489532958#7 489532958#8 489532957#0 489532957#1 109161038#2 109161038#3 489342530#0 489342530#1 489440459#0 489440459#1 489440462#0 489440462#1 489532959#0 489532959#1"/>
    </vehicle>
    <vehicle id="14" depart="14.00">
        <route edges="109161038#0 -361288430 109161038#2 109161038#3 109161038#4 -109161039#0"/>
    </vehicle>
    <vehicle id="15" depart="15.00">
        <route edges="489440465#1 489532958#4 489532958#5 489532958#6 489532958#7 489532958#8 489532957#0 489532957#1 361288430 109161038#1"/>
    </vehicle>
    <vehicle id="16" depart="16.00">
        <route edges="109161038#0 109161038#1 361288430"/>
    </vehicle>
    <vehicle id="19" depart="19.00">
        <route edges="109161038#1 109161038#2 109161038#3 489342530#0 489440452#0 489440453#1 489532958#0 489532958#1 489532958#2 489532958#3 489532958#4 489532958#5 489532958#6 489532958#7 489532958#8 489532957#0 489532957#1 -109161038#1"/>
    </vehicle>
    <vehicle id="20" depart="20.00">
        <route edges="489440459#1 489440456#0 489440458#2 489532961 489440452#0 489440452#1 489440452#2 489440452#3 489440452#4 489440452#5 489440452#6"/>
    </vehicle>
    <vehicle id="24" depart="24.00">
        <route edges="109161038#1 109161038#2 109161038#3 489342530#0 489342530#1 489440459#0 489440459#1 489440456#0"/>
    </vehicle>
    <vehicle id="25" depart="25.00">
        <route edges="109161038#2 109161038#3 489342530#0 489440452#0 489440453#1 489532958#0 489532958#1 489532958#2 489532958#3 489532958#4 489532958#5 489532958#6 489532958#7 489532958#8 489532957#0 489532957#1 361288430 -109161038#0"/>
    </vehicle>
    <vehicle id="26" depart="26.00">
        <route edges="489440463#0 489440463#1 489532958#2 489532958#3 489532958#4 489532958#5 489532958#6 489532958#7 489532958#8 489532957#0 489532957#1 361288430 109161038#1"/>
    </vehicle>
    <vehicle id="27" depart="27.00">
        <route edges="489532942#1 489532942#2 489532957#1 109161038#2 109161038#3 489342530#0 489440452#0 489440452#1 489440452#2 489440452#3 489440452#4 489440452#5 489440452#6 489440452#7 489440452#8 489440452#9 489532956#2 489532956#3"/>
    </vehicle>
    <vehicle id="28" depart="28.00">
        <route edges="489532956#1 489532956#2 489532956#3 489532957#0 489532957#1 109161038#2 109161038#3 489342530#0 489342530#1 489440459#0 489440459#1 489440456#0 489440458#2"/>
    </vehicle>
    <vehicle id="29" depart="29.00">
        <route edges="489440455#1 489532958#5 489532958#6 489532958#7 489532958#8 489532957#0 489532957#1 109161038#2 489342528 489532950#0"/>
    </vehicle>
    <vehicle id="30" depart="30.00">
        <route edges="489440453#0 489440453#1 489532958#0 489532958#1 489532958#2 489532958#3 489532958#4 489532958#5 489532958#6 489532958#7 489532958#8 489532957#0 489532957#1 361288430"/>
    </vehicle>
    <vehicle id="31" depart="31.00">
        <route edges="109161038#2 109161038#3 109161038#4 -109161039#0"/>
    </vehicle>
    <vehicle id="32" depart="32.00">
        <route edges="109161039#0 -109161038#4 -109161038#3 489342528 489532950#0 489532950#1 489532950#2 489532950#3 489532950#4 489532950#5 489532950#6 489532950#7 489532950#8 489532950#9 489532950#10 198341008#1 109161038#4 -109161039#0"/>
    </vehicle>
    <vehicle id="33" depart="33.00">
        <route edges="489440458#0 489440458#1 489440458#2 489532961 489440452#0 489440453#1 489532958#0 489532958#1 489532958#2 489532958#3 489532958#4 489532958#5 489532958#6 489532958#7 489532958#8 489532957#0 489532957#1 -109161038#1"/>
    </vehicle>
    <vehicle id="34" depart="34.00">
        <route edges="-489532950#3 -489532950#2 -489532950#1 -489532950#0 -489342528 -109161038#2 361288430"/>
    </vehicle>
    <vehicle id="35" depart="35.00">
        <route edges="109161038#0 -361288430 109161038#2 109161038#3 489342530#0 489440452#0 489440452#1 489440452#2 489440452#3 489440452#4 489440452#5 489440452#6 489440452#7 489440452#8 489440452#9 489532956#2 489532944#0"/>
    </vehicle>
    <vehicle id="36" depart="36.00">
        <route edges="489440464#1 489532958#3 489532958#4 489532958#5 489532958#6 489532958#7 489532958#8 489532957#0 489532957#1 361288430 109161038#1"/>
    </vehicle>
    <vehicle id="37" depart="37.00">
        <route edges="489532957#1 109161038#2 109161038#3 489342530#0 489342530#1 489440459#0 489440459#1 489440462#0 489440462#1 489532959#0 489532959#1"/>
    </vehicle>
    <vehicle id="38" depart="38.00">
        <route edges="489440457#0 489440458#1 489440458#2 489532961 -489342530#0 -198341008#1 -489532950#10 -489532950#9 -489532950#8 -489532950#7 -489532950#6 -489532950#5 -489532950#4"/>
    </vehicle>
    <vehicle id="39" depart="39.00">
        <route edges="-489342528 -109161038#2 361288430"/>
    </vehicle>
    <vehicle id="41" depart="41.00">
        <route edges="489532957#1 361288430"/>
    </vehicle>
    <vehicle id="43" depart="43.00">
        <route edges="109161039#0 -109161038#4 489342530#0 489342530#1 489440461#0 489440461#1 489440461#2 489440461#3 489440464#0"/>
    </vehicle>
    <vehicle id="45" depart="45.00">
        <route edges="-361288430 -109161038#1 -109161038#0"/>
    </vehicle>
    <vehicle id="46" depart="46.00">
        <route edges="489532956#3 489532957#0 489532957#1 109161038#2 109161038#3 489342530#0 489342530#1 489440459#0 489440459#1 489440462#0"/>
    </vehicle>
    <vehicle id="47" depart="47.00">
        <route edges="109161038#1 109161038#2 109161038#3 489342530#0 489440452#0 489440453#1 489532958#0 489532958#1 489532958#2 489532958#3 489532958#4 489532958#5 489532958#6 489532958#7 489532958#8 489532957#0 489532957#1 -109161038#1 -361288430"/>
    </vehicle>
    <vehicle id="48" depart="48.00">
        <route edges="-312053064#1 -312053064#0"/>
    </vehicle>
    <vehicle id="49" depart="49.00">
        <route edges="-109161038#3 489342528 489532950#0 489532950#1 489532950#2 489532950#3 489532950#4 489532950#5 489532950#6 489532950#7 489532950#8 489532950#9 489532950#10 198341008#1 489342530#0 489440452#0 489440453#1 489532958#0 489532958#1 489532958#2 489532958#3 489532958#4 489532958#5 489532958#6 489532958#7 489532958#8 489532957#0"/>
    </vehicle>
</routes>
