<?xml version="1.0" encoding="UTF-8"?>

<!-- generated on 07/11/18 18:57:36 by SUMO netconvert Version 0.32.0
<?xml version="1.0" encoding="UTF-8"?>

<configuration xmlns:xsi="http://www.w3.org/2001/XMLSchema-instance" xsi:noNamespaceSchemaLocation="http://sumo.dlr.de/xsd/netconvertConfiguration.xsd">

    <input>
        <osm-files value=".\skoda-parking\map.osm"/>
    </input>

    <output>
        <output-file value=".\skoda-parking\parking-lot.net.xml"/>
    </output>

    <projection>
        <proj value="+proj=utm +ellps=bessel +units=m"/>
    </projection>

    <tls_building>
        <tls.join value="true"/>
    </tls_building>

    <edge_removal>
        <remove-edges.by-vclass value="hov,taxi,bus,delivery,transport,lightrail,cityrail,rail_slow,rail_fast,motorcycle,bicycle,pedestrian"/>
    </edge_removal>

    <processing>
        <no-internal-links value="true"/>
        <no-turnarounds value="true"/>
    </processing>

</configuration>
-->

<net version="0.27" xmlns:xsi="http://www.w3.org/2001/XMLSchema-instance" xsi:noNamespaceSchemaLocation="http://sumo.dlr.de/xsd/net_file.xsd">

    <location netOffset="-1768467.96,-5740684.41" convBoundary="0.00,0.00,570.64,467.22" origBoundary="14.919446,50.423928,14.936850,50.430357" projParameter="+proj=utm +ellps=bessel +units=m"/>

    <type id="highway.bridleway" priority="1" numLanes="1" speed="2.78" allow="pedestrian" oneway="1" width="2.00"/>
    <type id="highway.bus_guideway" priority="1" numLanes="1" speed="8.33" allow="bus" oneway="1"/>
    <type id="highway.cycleway" priority="1" numLanes="1" speed="5.56" allow="bicycle" oneway="0" width="1.00"/>
    <type id="highway.footway" priority="1" numLanes="1" speed="2.78" allow="pedestrian" oneway="1" width="2.00"/>
    <type id="highway.ford" priority="1" numLanes="1" speed="2.78" allow="army" oneway="0"/>
    <type id="highway.living_street" priority="3" numLanes="1" speed="2.78" disallow="tram rail_urban rail rail_electric ship" oneway="0"/>
    <type id="highway.motorway" priority="13" numLanes="2" speed="44.44" allow="private emergency authority army vip passenger hov taxi bus coach delivery truck trailer motorcycle evehicle custom1 custom2" oneway="1"/>
    <type id="highway.motorway_link" priority="12" numLanes="1" speed="22.22" allow="private emergency authority army vip passenger hov taxi bus coach delivery truck trailer motorcycle evehicle custom1 custom2" oneway="1"/>
    <type id="highway.path" priority="1" numLanes="1" speed="2.78" allow="bicycle pedestrian" oneway="1" width="2.00"/>
    <type id="highway.pedestrian" priority="1" numLanes="1" speed="2.78" allow="pedestrian" oneway="1" width="2.00"/>
    <type id="highway.primary" priority="9" numLanes="2" speed="27.78" disallow="tram rail_urban rail rail_electric ship" oneway="0"/>
    <type id="highway.primary_link" priority="8" numLanes="1" speed="22.22" disallow="tram rail_urban rail rail_electric ship" oneway="0"/>
    <type id="highway.raceway" priority="14" numLanes="2" speed="83.33" allow="vip" oneway="0"/>
    <type id="highway.residential" priority="4" numLanes="1" speed="13.89" disallow="tram rail_urban rail rail_electric ship" oneway="0"/>
    <type id="highway.secondary" priority="7" numLanes="2" speed="27.78" disallow="tram rail_urban rail rail_electric ship" oneway="0"/>
    <type id="highway.secondary_link" priority="6" numLanes="1" speed="22.22" disallow="tram rail_urban rail rail_electric ship" oneway="0"/>
    <type id="highway.service" priority="2" numLanes="1" speed="5.56" allow="delivery bicycle pedestrian" oneway="0"/>
    <type id="highway.services" priority="1" numLanes="1" speed="8.33" disallow="tram rail_urban rail rail_electric ship" oneway="0"/>
    <type id="highway.stairs" priority="1" numLanes="1" speed="1.39" allow="pedestrian" oneway="1" width="2.00"/>
    <type id="highway.step" priority="1" numLanes="1" speed="1.39" allow="pedestrian" oneway="1" width="2.00"/>
    <type id="highway.steps" priority="1" numLanes="1" speed="1.39" allow="pedestrian" oneway="1" width="2.00"/>
    <type id="highway.tertiary" priority="6" numLanes="1" speed="22.22" disallow="tram rail_urban rail rail_electric ship" oneway="0"/>
    <type id="highway.tertiary_link" priority="5" numLanes="1" speed="22.22" disallow="tram rail_urban rail rail_electric ship" oneway="0"/>
    <type id="highway.track" priority="1" numLanes="1" speed="5.56" disallow="tram rail_urban rail rail_electric ship" oneway="0"/>
    <type id="highway.trunk" priority="11" numLanes="2" speed="27.78" disallow="tram rail_urban rail rail_electric bicycle pedestrian ship" oneway="0"/>
    <type id="highway.trunk_link" priority="10" numLanes="1" speed="22.22" disallow="tram rail_urban rail rail_electric bicycle pedestrian ship" oneway="0"/>
    <type id="highway.unclassified" priority="5" numLanes="1" speed="13.89" disallow="tram rail_urban rail rail_electric ship" oneway="0"/>
    <type id="highway.unsurfaced" priority="1" numLanes="1" speed="8.33" disallow="tram rail_urban rail rail_electric ship" oneway="0"/>
    <type id="railway.light_rail" priority="15" numLanes="1" speed="27.78" allow="rail_urban" oneway="1"/>
    <type id="railway.preserved" priority="15" numLanes="1" speed="27.78" allow="rail" oneway="1"/>
    <type id="railway.rail" priority="15" numLanes="1" speed="83.33" allow="rail rail_electric" oneway="1"/>
    <type id="railway.subway" priority="15" numLanes="1" speed="27.78" allow="rail_urban" oneway="1"/>
    <type id="railway.tram" priority="15" numLanes="1" speed="13.89" allow="tram" oneway="1"/>

    <edge id="-109161057#0" from="5010080863" to="1250408374" priority="14" type="highway.raceway">
        <lane id="-109161057#0_0" index="0" allow="vip" speed="83.33" length="8.42" shape="359.06,68.38 362.29,66.29"/>
        <lane id="-109161057#0_1" index="1" allow="vip" speed="83.33" length="8.42" shape="360.85,71.15 364.09,69.06"/>
    </edge>
    <edge id="-109161057#1" from="2084811740" to="5010080863" priority="14" type="highway.raceway" shape="469.36,70.49 372.84,93.25 369.26,92.80 365.48,91.28 361.46,87.56 359.22,82.48 359.51,78.48 362.17,72.26">
        <lane id="-109161057#1_0" index="0" allow="vip" speed="83.33" length="126.83" shape="470.36,75.34 373.10,98.27 368.01,97.63 362.79,95.54 357.34,90.49 354.19,83.35 354.64,77.30 354.72,77.09"/>
        <lane id="-109161057#1_1" index="1" allow="vip" speed="83.33" length="126.83" shape="469.61,72.13 372.93,94.92 368.84,94.41 364.58,92.70 360.09,88.54 357.54,82.77 357.87,78.38"/>
    </edge>
    <edge id="-109161057#2" from="1250408533" to="2084811740" priority="14" type="highway.raceway" shape="559.59,29.00 565.19,30.94 568.67,33.41 570.64,38.78 570.37,43.80 567.03,48.87 559.89,51.55 469.36,70.49">
        <lane id="-109161057#2_0" index="0" allow="vip" speed="83.33" length="125.85" shape="567.66,26.62 572.79,30.26 575.64,38.04 575.24,45.40 570.28,52.93 561.28,56.32 470.50,75.31"/>
        <lane id="-109161057#2_1" index="1" allow="vip" speed="83.33" length="125.85" shape="566.48,29.83 570.05,32.36 572.31,38.53 571.99,44.33 568.11,50.22 560.36,53.14 469.83,72.08"/>
    </edge>
    <edge id="-109161057#3" from="1250408374" to="1250408533" priority="14" type="highway.raceway" shape="366.00,69.78 540.18,32.61 559.59,29.00">
        <lane id="-109161057#3_0" index="0" allow="vip" speed="83.33" length="200.90" shape="366.14,64.69 539.22,27.76 558.91,24.09"/>
        <lane id="-109161057#3_1" index="1" allow="vip" speed="83.33" length="200.90" shape="366.83,67.92 539.86,30.99 559.52,27.34"/>
    </edge>
    <edge id="-26790904" from="3178650057" to="480585212" priority="4" type="highway.residential">
        <lane id="-26790904_0" index="0" disallow="tram rail_urban rail rail_electric ship" speed="13.89" length="25.18" shape="125.07,91.65 149.59,85.92"/>
    </edge>
    <edge id="-512380915" from="5010080863" to="1250408533" priority="14" type="highway.raceway" shape="362.17,72.26 379.93,77.69 385.40,77.86 544.06,44.23 557.09,33.31 559.59,29.00">
        <lane id="-512380915_0" index="0" allow="vip" speed="83.33" length="205.21" shape="370.74,69.71 380.75,72.76 384.96,72.89 541.82,39.65 551.03,31.93"/>
        <lane id="-512380915_1" index="1" allow="vip" speed="83.33" length="205.21" shape="369.78,72.86 380.20,76.05 385.25,76.20 543.31,42.71 554.04,33.72"/>
    </edge>
    <edge id="109161057#0" from="1250408374" to="5010080863" priority="14" type="highway.raceway">
        <lane id="109161057#0_0" index="0" allow="vip" speed="83.33" length="8.42" shape="367.67,74.59 364.44,76.69"/>
        <lane id="109161057#0_1" index="1" allow="vip" speed="83.33" length="8.42" shape="365.88,71.82 362.65,73.92"/>
    </edge>
    <edge id="109161057#1" from="5010080863" to="2084811740" priority="14" type="highway.raceway" shape="362.17,72.26 359.51,78.48 359.22,82.48 361.46,87.56 365.48,91.28 369.26,92.80 372.84,93.25 469.36,70.49">
        <lane id="109161057#1_0" index="0" allow="vip" speed="83.33" length="126.83" shape="364.29,81.01 364.25,81.61 365.57,84.62 368.17,87.03 370.51,87.97 372.57,88.23 468.09,65.71"/>
        <lane id="109161057#1_1" index="1" allow="vip" speed="83.33" length="126.83" shape="361.08,79.69 360.89,82.19 362.83,86.58 366.38,89.87 369.68,91.19 372.75,91.57 468.85,68.92"/>
    </edge>
    <edge id="109161057#2" from="2084811740" to="1250408533" priority="14" type="highway.raceway" shape="469.36,70.49 559.89,51.55 567.03,48.87 570.37,43.80 570.64,38.78 568.67,33.41 565.19,30.94 559.59,29.00">
        <lane id="109161057#2_0" index="0" allow="vip" speed="83.33" length="125.85" shape="468.48,65.62 558.51,46.78 563.78,44.80 565.50,42.19 565.64,39.53 564.56,36.55 564.13,36.25"/>
        <lane id="109161057#2_1" index="1" allow="vip" speed="83.33" length="125.85" shape="469.15,68.85 559.43,49.96 565.95,47.51 568.75,43.26 568.98,39.03 567.30,34.46 565.30,33.04"/>
    </edge>
    <edge id="109161057#3" from="1250408533" to="1250408374" priority="14" type="highway.raceway" shape="559.59,29.00 540.18,32.61 366.00,69.78">
        <lane id="109161057#3_0" index="0" allow="vip" speed="83.33" length="200.90" shape="560.72,33.83 541.15,37.47 368.21,74.37"/>
        <lane id="109161057#3_1" index="1" allow="vip" speed="83.33" length="200.90" shape="560.12,30.58 540.51,34.23 367.52,71.14"/>
    </edge>
    <edge id="164249755#0" from="293886210" to="1710488404" priority="4" type="highway.residential" spreadType="center" shape="103.92,467.22 97.81,459.78 94.21,447.80">
        <lane id="164249755#0_0" index="0" disallow="tram rail_urban rail rail_electric ship" speed="13.89" length="19.98" shape="99.52,464.46 96.33,460.57 92.67,448.41"/>
        <lane id="164249755#0_1" index="1" disallow="tram rail_urban rail rail_electric ship" speed="13.89" length="19.98" shape="102.07,462.36 99.30,458.99 95.83,447.46"/>
    </edge>
    <edge id="164249755#1" from="1710488404" to="5010080374" priority="4" type="highway.residential" spreadType="center" shape="94.21,447.80 78.05,370.60 27.73,140.15">
        <lane id="164249755#1_0" index="0" disallow="tram rail_urban rail rail_electric ship" speed="13.89" length="314.75" shape="92.56,448.00 76.43,370.94 26.12,140.50"/>
        <lane id="164249755#1_1" index="1" disallow="tram rail_urban rail rail_electric ship" speed="13.89" length="314.75" shape="95.79,447.33 79.66,370.25 29.35,139.80"/>
    </edge>
    <edge id="164249755#2" from="5010080374" to="3391496895" priority="4" type="highway.residential" spreadType="center">
        <lane id="164249755#2_0" index="0" disallow="tram rail_urban rail rail_electric ship" speed="13.89" length="9.18" shape="26.12,140.50 24.16,131.53"/>
        <lane id="164249755#2_1" index="1" disallow="tram rail_urban rail rail_electric ship" speed="13.89" length="9.18" shape="29.35,139.80 27.39,130.83"/>
    </edge>
    <edge id="164249755#3" from="3391496895" to="36262296" priority="4" type="highway.residential" spreadType="center">
        <lane id="164249755#3_0" index="0" disallow="tram rail_urban rail rail_electric ship" speed="13.89" length="13.85" shape="24.16,131.53 21.21,118.00"/>
        <lane id="164249755#3_1" index="1" disallow="tram rail_urban rail rail_electric ship" speed="13.89" length="13.85" shape="27.39,130.83 24.43,117.30"/>
    </edge>
    <edge id="26790904" from="480585212" to="3178650057" priority="4" type="highway.residential">
        <lane id="26790904_0" index="0" disallow="tram rail_urban rail rail_electric ship" speed="13.89" length="25.18" shape="150.34,89.14 125.82,94.86"/>
    </edge>
    <edge id="312053071#0" from="3178650040" to="5010080373" priority="4" type="highway.residential" spreadType="center" shape="0.00,0.00 8.37,14.25 26.73,86.14">
        <lane id="312053071#0_0" index="0" disallow="tram rail_urban rail rail_electric ship" speed="13.89" length="90.72" shape="1.42,-0.84 9.91,13.62 28.29,85.58"/>
        <lane id="312053071#0_1" index="1" disallow="tram rail_urban rail rail_electric ship" speed="13.89" length="90.72" shape="-1.42,0.84 6.83,14.89 25.09,86.40"/>
    </edge>
    <edge id="312053071#1" from="5010080373" to="3178653173" priority="4" type="highway.residential" spreadType="center">
        <lane id="312053071#1_0" index="0" disallow="tram rail_urban rail rail_electric ship" speed="13.89" length="8.44" shape="28.36,85.87 30.38,93.76"/>
        <lane id="312053071#1_1" index="1" disallow="tram rail_urban rail rail_electric ship" speed="13.89" length="8.44" shape="25.17,86.69 27.18,94.58"/>
    </edge>
    <edge id="312053071#2" from="3178653173" to="3391496896" priority="4" type="highway.residential" spreadType="center" shape="28.82,94.31 34.34,115.12 37.31,128.70">
        <lane id="312053071#2_0" index="0" disallow="tram rail_urban rail rail_electric ship" speed="13.89" length="35.43" shape="30.45,94.03 35.94,114.73 38.89,128.20"/>
        <lane id="312053071#2_1" index="1" disallow="tram rail_urban rail rail_electric ship" speed="13.89" length="35.43" shape="27.26,94.88 32.74,115.51 35.66,128.91"/>
    </edge>
    <edge id="312053071#3" from="3391496896" to="5010080370" priority="4" type="highway.residential" spreadType="center" shape="37.31,128.70 85.54,349.92 104.89,441.02">
        <lane id="312053071#3_0" index="0" disallow="tram rail_urban rail rail_electric ship" speed="13.89" length="319.55" shape="38.95,128.50 87.16,349.58 106.48,440.53"/>
        <lane id="312053071#3_1" index="1" disallow="tram rail_urban rail rail_electric ship" speed="13.89" length="319.55" shape="35.73,129.20 83.93,350.27 103.25,441.22"/>
    </edge>
    <edge id="312053071#4" from="5010080370" to="4986770524" priority="4" type="highway.residential" spreadType="center">
        <lane id="312053071#4_0" index="0" disallow="tram rail_urban rail rail_electric ship" speed="13.89" length="4.56" shape="106.54,440.83 107.42,444.99"/>
        <lane id="312053071#4_1" index="1" disallow="tram rail_urban rail rail_electric ship" speed="13.89" length="4.56" shape="103.31,441.51 104.20,445.68"/>
    </edge>
    <edge id="312053071#5" from="4986770524" to="293886210" priority="4" type="highway.residential" spreadType="center" shape="105.84,445.48 108.56,458.28 103.92,467.22">
        <lane id="312053071#5_0" index="0" disallow="tram rail_urban rail rail_electric ship" speed="13.89" length="21.01" shape="107.49,445.28 110.30,458.51 107.66,463.60"/>
        <lane id="312053071#5_1" index="1" disallow="tram rail_urban rail rail_electric ship" speed="13.89" length="21.01" shape="104.26,445.97 106.83,458.04 104.73,462.08"/>
    </edge>
    <edge id="512380915" from="1250408533" to="5010080863" priority="14" type="highway.raceway" shape="559.59,29.00 557.09,33.31 544.06,44.23 385.40,77.86 379.93,77.69 362.17,72.26">
        <lane id="512380915_0" index="0" allow="vip" speed="83.33" length="205.21" shape="560.05,37.29 546.29,48.82 385.84,82.82 379.12,82.61 367.85,79.17"/>
        <lane id="512380915_1" index="1" allow="vip" speed="83.33" length="205.21" shape="557.04,35.50 544.80,45.76 385.55,79.51 379.66,79.33 368.81,76.02"/>
    </edge>

    <tlLogic id="1710488404" type="static" programID="0" offset="0">
        <phase duration="82" state="GG"/>
        <phase duration="3" state="yy"/>
        <phase duration="5" state="rr"/>
    </tlLogic>
    <tlLogic id="3391496896" type="static" programID="0" offset="0">
        <phase duration="82" state="GG"/>
        <phase duration="3" state="yy"/>
        <phase duration="5" state="rr"/>
    </tlLogic>
    <tlLogic id="joinedS_0" type="static" programID="0" offset="0">
        <phase duration="82" state="GGGG"/>
        <phase duration="3" state="yyyy"/>
        <phase duration="5" state="rrrr"/>
    </tlLogic>
    <tlLogic id="joinedS_1" type="static" programID="0" offset="0">
        <phase duration="82" state="GGGG"/>
        <phase duration="3" state="yyyy"/>
        <phase duration="5" state="rrrr"/>
    </tlLogic>
    <tlLogic id="joinedS_2" type="static" programID="0" offset="0">
        <phase duration="82" state="GGGG"/>
        <phase duration="3" state="yyyy"/>
        <phase duration="5" state="rrrr"/>
    </tlLogic>

    <junction id="1250408374" type="priority" x="366.00" y="69.78" incLanes="109161057#3_0 109161057#3_1 -109161057#0_0 -109161057#0_1" intLanes="" shape="368.54,75.94 365.81,63.13 361.42,64.94">
        <request index="0" response="0000" foes="0000"/>
        <request index="1" response="0000" foes="0000"/>
        <request index="2" response="0000" foes="0000"/>
        <request index="3" response="0000" foes="0000"/>
    </junction>
    <junction id="1250408533" type="priority" x="559.59" y="29.00" incLanes="109161057#2_0 109161057#2_1 -109161057#3_0 -109161057#3_1 -512380915_0 -512380915_1" intLanes="" shape="563.43,38.14 568.23,25.06 558.62,22.52 561.01,35.40 549.57,31.07 561.51,38.15">
        <request index="0" response="00000000" foes="00000000"/>
        <request index="1" response="00000000" foes="11100000"/>
        <request index="2" response="00000000" foes="11100000"/>
        <request index="3" response="00000000" foes="10000000"/>
        <request index="4" response="00000000" foes="10000000"/>
        <request index="5" response="00000110" foes="10000110"/>
        <request index="6" response="00000110" foes="00000110"/>
        <request index="7" response="00111110" foes="00111110"/>
    </junction>
    <junction id="1710488404" type="traffic_light" x="94.21" y="447.80" incLanes="164249755#0_0 164249755#0_1" intLanes="" shape="91.14,448.87 97.36,447.00 91.00,448.33">
        <request index="0" response="00" foes="00"/>
        <request index="1" response="00" foes="00"/>
    </junction>
    <junction id="2084811740" type="priority" x="469.36" y="70.49" incLanes="-109161057#2_0 -109161057#2_1 109161057#1_0 109161057#1_1" intLanes="" shape="470.83,76.88 468.15,64.05 467.73,64.15 470.73,76.90">
        <request index="0" response="0000" foes="0000"/>
        <request index="1" response="0000" foes="0000"/>
        <request index="2" response="0000" foes="0000"/>
        <request index="3" response="0000" foes="0000"/>
    </junction>
    <junction id="293886210" type="priority" x="103.92" y="467.22" incLanes="312053071#5_0 312053071#5_1" intLanes="" shape="109.08,464.34 103.31,461.35 98.29,465.47">
        <request index="0" response="00" foes="00"/>
        <request index="1" response="00" foes="00"/>
    </junction>
    <junction id="3178650040" type="dead_end" x="0.00" y="0.00" incLanes="" intLanes="" shape="-2.80,1.65 2.80,-1.65"/>
    <junction id="3178650057" type="dead_end" x="125.44" y="93.25" incLanes="26790904_0" intLanes="" shape="125.43,93.20 126.18,96.42 125.45,93.30"/>
    <junction id="3178653173" type="traffic_light" x="28.82" y="94.31" incLanes="312053071#1_0 312053071#1_1" intLanes="" shape="25.71,95.29 32.00,93.62 31.93,93.36 25.63,94.97">
        <request index="0" response="00" foes="00"/>
        <request index="1" response="00" foes="00"/>
    </junction>
    <junction id="3391496895" type="traffic_light" x="25.78" y="131.18" incLanes="164249755#2_0 164249755#2_1" intLanes="" shape="22.60,131.87 28.95,130.49 22.60,131.87">
        <request index="0" response="00" foes="00"/>
        <request index="1" response="00" foes="00"/>
    </junction>
    <junction id="3391496896" type="traffic_light" x="37.31" y="128.70" incLanes="312053071#2_0 312053071#2_1" intLanes="" shape="34.16,129.54 40.51,128.16 40.45,127.86 34.10,129.25">
        <request index="0" response="00" foes="00"/>
        <request index="1" response="00" foes="00"/>
    </junction>
    <junction id="36262296" type="dead_end" x="22.82" y="117.65" incLanes="164249755#3_0 164249755#3_1" intLanes="" shape="19.64,118.34 26.00,116.95"/>
    <junction id="480585212" type="dead_end" x="149.97" y="87.53" incLanes="-26790904_0" intLanes="" shape="149.98,87.58 149.23,84.36 149.95,87.48"/>
    <junction id="4986770524" type="traffic_light" x="105.84" y="445.48" incLanes="312053071#4_0 312053071#4_1" intLanes="" shape="102.69,446.30 109.05,444.95 108.99,444.65 102.63,446.01">
        <request index="0" response="00" foes="00"/>
        <request index="1" response="00" foes="00"/>
    </junction>
    <junction id="5010080370" type="traffic_light" x="104.89" y="441.02" incLanes="312053071#3_0 312053071#3_1" intLanes="" shape="101.75,441.85 108.10,440.49 108.04,440.20 101.68,441.55">
        <request index="0" response="00" foes="00"/>
        <request index="1" response="00" foes="00"/>
    </junction>
    <junction id="5010080373" type="traffic_light" x="26.73" y="86.14" incLanes="312053071#0_0 312053071#0_1" intLanes="" shape="23.62,87.09 29.91,85.48 29.84,85.19 23.54,86.79">
        <request index="0" response="00" foes="00"/>
        <request index="1" response="00" foes="00"/>
    </junction>
    <junction id="5010080374" type="traffic_light" x="27.73" y="140.15" incLanes="164249755#1_0 164249755#1_1" intLanes="" shape="24.56,140.85 30.91,139.46 24.56,140.85">
        <request index="0" response="00" foes="00"/>
        <request index="1" response="00" foes="00"/>
    </junction>
    <junction id="5010080863" type="priority" x="362.17" y="72.26" incLanes="512380915_0 512380915_1 109161057#0_0 109161057#0_1 -109161057#1_0 -109161057#1_1" intLanes="" shape="367.38,80.70 371.21,68.18 365.31,78.03 358.19,67.04 353.24,76.49 366.05,81.73">
        <request index="0" response="00011000" foes="00011000"/>
        <request index="1" response="11111000" foes="11111000"/>
        <request index="2" response="00000000" foes="00000000"/>
        <request index="3" response="00000000" foes="10000011"/>
        <request index="4" response="00000000" foes="10000011"/>
        <request index="5" response="00000000" foes="00000010"/>
        <request index="6" response="00000000" foes="00000010"/>
        <request index="7" response="00011000" foes="00011010"/>
    </junction>

    <connection from="-109161057#0" to="-109161057#3" fromLane="0" toLane="0" dir="s" state="M"/>
    <connection from="-109161057#0" to="-109161057#3" fromLane="1" toLane="1" dir="s" state="M"/>
    <connection from="-109161057#1" to="-109161057#0" fromLane="0" toLane="0" dir="s" state="M"/>
    <connection from="-109161057#1" to="-109161057#0" fromLane="1" toLane="1" dir="s" state="M"/>
    <connection from="-109161057#1" to="-512380915" fromLane="1" toLane="1" dir="l" state="m"/>
    <connection from="-109161057#2" to="-109161057#1" fromLane="0" toLane="0" dir="s" state="M"/>
    <connection from="-109161057#2" to="-109161057#1" fromLane="1" toLane="1" dir="s" state="M"/>
    <connection from="-109161057#3" to="-109161057#2" fromLane="0" toLane="0" dir="s" state="M"/>
    <connection from="-109161057#3" to="-109161057#2" fromLane="1" toLane="1" dir="s" state="M"/>
    <connection from="-109161057#3" to="512380915" fromLane="1" toLane="1" dir="l" state="m"/>
    <connection from="-512380915" to="109161057#3" fromLane="0" toLane="0" dir="r" state="m"/>
    <connection from="-512380915" to="-109161057#2" fromLane="1" toLane="1" dir="l" state="m"/>
    <connection from="109161057#0" to="-512380915" fromLane="0" toLane="0" dir="r" state="M"/>
    <connection from="109161057#0" to="109161057#1" fromLane="0" toLane="0" dir="s" state="M"/>
    <connection from="109161057#0" to="109161057#1" fromLane="1" toLane="1" dir="s" state="M"/>
    <connection from="109161057#1" to="109161057#2" fromLane="0" toLane="0" dir="s" state="M"/>
    <connection from="109161057#1" to="109161057#2" fromLane="1" toLane="1" dir="s" state="M"/>
    <connection from="109161057#2" to="512380915" fromLane="0" toLane="0" dir="r" state="M"/>
    <connection from="109161057#2" to="109161057#3" fromLane="0" toLane="0" dir="s" state="M"/>
    <connection from="109161057#2" to="109161057#3" fromLane="1" toLane="1" dir="s" state="M"/>
    <connection from="109161057#3" to="109161057#0" fromLane="0" toLane="0" dir="s" state="M"/>
    <connection from="109161057#3" to="109161057#0" fromLane="1" toLane="1" dir="s" state="M"/>
    <connection from="164249755#0" to="164249755#1" fromLane="0" toLane="0" tl="1710488404" linkIndex="0" dir="s" state="o"/>
    <connection from="164249755#0" to="164249755#1" fromLane="1" toLane="1" tl="1710488404" linkIndex="1" dir="s" state="o"/>
    <connection from="164249755#1" to="164249755#2" fromLane="0" toLane="0" tl="joinedS_1" linkIndex="2" dir="s" state="o"/>
    <connection from="164249755#1" to="164249755#2" fromLane="1" toLane="1" tl="joinedS_1" linkIndex="3" dir="s" state="o"/>
    <connection from="164249755#2" to="164249755#3" fromLane="0" toLane="0" tl="joinedS_1" linkIndex="0" dir="s" state="o"/>
    <connection from="164249755#2" to="164249755#3" fromLane="1" toLane="1" tl="joinedS_1" linkIndex="1" dir="s" state="o"/>
    <connection from="312053071#0" to="312053071#1" fromLane="0" toLane="0" tl="joinedS_0" linkIndex="2" dir="s" state="o"/>
    <connection from="312053071#0" to="312053071#1" fromLane="1" toLane="1" tl="joinedS_0" linkIndex="3" dir="s" state="o"/>
    <connection from="312053071#1" to="312053071#2" fromLane="0" toLane="0" tl="joinedS_0" linkIndex="0" dir="s" state="o"/>
    <connection from="312053071#1" to="312053071#2" fromLane="1" toLane="1" tl="joinedS_0" linkIndex="1" dir="s" state="o"/>
    <connection from="312053071#2" to="312053071#3" fromLane="0" toLane="0" tl="3391496896" linkIndex="0" dir="s" state="o"/>
    <connection from="312053071#2" to="312053071#3" fromLane="1" toLane="1" tl="3391496896" linkIndex="1" dir="s" state="o"/>
    <connection from="312053071#3" to="312053071#4" fromLane="0" toLane="0" tl="joinedS_2" linkIndex="2" dir="s" state="o"/>
    <connection from="312053071#3" to="312053071#4" fromLane="1" toLane="1" tl="joinedS_2" linkIndex="3" dir="s" state="o"/>
    <connection from="312053071#4" to="312053071#5" fromLane="0" toLane="0" tl="joinedS_2" linkIndex="0" dir="s" state="o"/>
    <connection from="312053071#4" to="312053071#5" fromLane="1" toLane="1" tl="joinedS_2" linkIndex="1" dir="s" state="o"/>
    <connection from="312053071#5" to="164249755#0" fromLane="0" toLane="0" dir="l" state="M"/>
    <connection from="312053071#5" to="164249755#0" fromLane="1" toLane="1" dir="l" state="M"/>
    <connection from="512380915" to="109161057#1" fromLane="0" toLane="0" dir="r" state="m"/>
    <connection from="512380915" to="-109161057#0" fromLane="1" toLane="1" dir="l" state="m"/>

</net>
