<?xml version="1.0" encoding="UTF-8"?>

<!-- generated on 07/11/18 20:55:52 by SUMO duarouter Version 0.32.0
<?xml version="1.0" encoding="UTF-8"?>

<configuration xmlns:xsi="http://www.w3.org/2001/XMLSchema-instance" xsi:noNamespaceSchemaLocation="http://sumo.dlr.de/xsd/duarouterConfiguration.xsd">

    <input>
        <net-file value="skoda-parking\skoda-parking.net.xml"/>
        <route-files value="skoda-parking\skoda-parking.trips.xml"/>
    </input>

    <output>
        <output-file value="skoda-parking\skoda-parking.rou.xml"/>
        <alternatives-output value="skoda-parking\skoda-parking.rou.alt.xml"/>
    </output>

    <processing>
        <ignore-errors value="true"/>
        <routing-algorithm value="astar"/>
    </processing>

</configuration>
-->

<routes xmlns:xsi="http://www.w3.org/2001/XMLSchema-instance" xsi:noNamespaceSchemaLocation="http://sumo.dlr.de/xsd/routes_file.xsd">
    <vehicle id="1" depart="1.00">
        <route edges="312053071#0 312053071#1 312053071#2 312053071#3 312053071#4 312053071#5 164249755#0 164249755#1"/>
    </vehicle>
    <vehicle id="2" depart="2.00">
        <route edges="164249755#1"/>
    </vehicle>
    <vehicle id="3" depart="3.00">
        <route edges="312053071#3 312053071#4 312053071#5"/>
    </vehicle>
    <vehicle id="5" depart="5.00">
        <route edges="312053071#2"/>
    </vehicle>
    <vehicle id="6" depart="6.00">
        <route edges="312053071#3 312053071#4 312053071#5"/>
    </vehicle>
    <vehicle id="7" depart="7.00">
        <route edges="164249755#1"/>
    </vehicle>
    <vehicle id="8" depart="8.00">
        <route edges="312053071#2 312053071#3"/>
    </vehicle>
    <vehicle id="11" depart="11.00">
        <route edges="312053071#0 312053071#1 312053071#2 312053071#3"/>
    </vehicle>
    <vehicle id="12" depart="12.00">
        <route edges="312053071#3 312053071#4 312053071#5 164249755#0 164249755#1"/>
    </vehicle>
    <vehicle id="20" depart="20.00">
        <route edges="312053071#3 312053071#4 312053071#5 164249755#0 164249755#1"/>
    </vehicle>
    <vehicle id="21" depart="21.00">
        <route edges="312053071#0 312053071#1 312053071#2 312053071#3"/>
    </vehicle>
    <vehicle id="22" depart="22.00">
        <route edges="312053071#3 312053071#4 312053071#5 164249755#0 164249755#1"/>
    </vehicle>
    <vehicle id="24" depart="24.00">
        <route edges="312053071#3 312053071#4 312053071#5"/>
    </vehicle>
    <vehicle id="25" depart="25.00">
        <route edges="312053071#2 312053071#3"/>
    </vehicle>
    <vehicle id="26" depart="26.00">
        <route edges="312053071#3 312053071#4 312053071#5 164249755#0 164249755#1"/>
    </vehicle>
    <vehicle id="27" depart="27.00">
        <route edges="312053071#2 312053071#3 312053071#4 312053071#5 164249755#0 164249755#1"/>
    </vehicle>
    <vehicle id="28" depart="28.00">
        <route edges="312053071#3"/>
    </vehicle>
    <vehicle id="29" depart="29.00">
        <route edges="312053071#0 312053071#1 312053071#2 312053071#3 312053071#4 312053071#5 164249755#0 164249755#1"/>
    </vehicle>
    <vehicle id="30" depart="30.00">
        <route edges="312053071#3 312053071#4 312053071#5 164249755#0 164249755#1 164249755#2"/>
    </vehicle>
    <vehicle id="31" depart="31.00">
        <route edges="312053071#3 312053071#4 312053071#5"/>
    </vehicle>
    <vehicle id="32" depart="32.00">
        <route edges="312053071#3 312053071#4 312053071#5 164249755#0 164249755#1"/>
    </vehicle>
    <vehicle id="33" depart="33.00">
        <route edges="164249755#1"/>
    </vehicle>
    <vehicle id="34" depart="34.00">
        <route edges="312053071#3 312053071#4 312053071#5 164249755#0 164249755#1"/>
    </vehicle>
    <vehicle id="35" depart="35.00">
        <route edges="312053071#2 312053071#3 312053071#4 312053071#5 164249755#0 164249755#1"/>
    </vehicle>
    <vehicle id="36" depart="36.00">
        <route edges="312053071#0 312053071#1 312053071#2 312053071#3"/>
    </vehicle>
    <vehicle id="37" depart="37.00">
        <route edges="312053071#3 312053071#4 312053071#5 164249755#0 164249755#1"/>
    </vehicle>
    <vehicle id="38" depart="38.00">
        <route edges="312053071#0 312053071#1 312053071#2 312053071#3 312053071#4 312053071#5 164249755#0"/>
    </vehicle>
    <vehicle id="39" depart="39.00">
        <route edges="312053071#3"/>
    </vehicle>
    <vehicle id="40" depart="40.00">
        <route edges="164249755#1"/>
    </vehicle>
    <vehicle id="41" depart="41.00">
        <route edges="164249755#1"/>
    </vehicle>
    <vehicle id="42" depart="42.00">
        <route edges="312053071#3"/>
    </vehicle>
    <vehicle id="43" depart="43.00">
        <route edges="164249755#1"/>
    </vehicle>
    <vehicle id="44" depart="44.00">
        <route edges="312053071#3 312053071#4 312053071#5 164249755#0 164249755#1"/>
    </vehicle>
    <vehicle id="45" depart="45.00">
        <route edges="312053071#3"/>
    </vehicle>
    <vehicle id="47" depart="47.00">
        <route edges="164249755#1"/>
    </vehicle>
    <vehicle id="49" depart="49.00">
        <route edges="164249755#1"/>
    </vehicle>
</routes>
