<?xml version="1.0" encoding="UTF-8"?>

<!-- generated on 07/12/18 09:41:47 by SUMO netconvert Version 0.32.0
<?xml version="1.0" encoding="UTF-8"?>

<configuration xmlns:xsi="http://www.w3.org/2001/XMLSchema-instance" xsi:noNamespaceSchemaLocation="http://sumo.dlr.de/xsd/netconvertConfiguration.xsd">

    <input>
        <osm-files value="skoda-parking\skoda-parking.osm"/>
    </input>

    <output>
        <output-file value="skoda-parking\skoda-parking.net.xml"/>
    </output>

    <projection>
        <proj value="+proj=utm +ellps=bessel +units=m"/>
    </projection>

    <tls_building>
        <tls.join value="true"/>
    </tls_building>

    <processing>
        <no-internal-links value="true"/>
        <no-turnarounds value="true"/>
    </processing>

</configuration>
-->

<net version="0.27" xmlns:xsi="http://www.w3.org/2001/XMLSchema-instance" xsi:noNamespaceSchemaLocation="http://sumo.dlr.de/xsd/net_file.xsd">

    <location netOffset="-1768467.96,-5740553.49" convBoundary="0.00,0.00,1260.27,598.13" origBoundary="14.919446,50.423928,14.936850,50.430357" projParameter="+proj=utm +ellps=bessel +units=m"/>

    <type id="highway.bridleway" priority="1" numLanes="1" speed="2.78" allow="pedestrian" oneway="1" width="2.00"/>
    <type id="highway.bus_guideway" priority="1" numLanes="1" speed="8.33" allow="bus" oneway="1"/>
    <type id="highway.cycleway" priority="1" numLanes="1" speed="5.56" allow="bicycle" oneway="0" width="1.00"/>
    <type id="highway.footway" priority="1" numLanes="1" speed="2.78" allow="pedestrian" oneway="1" width="2.00"/>
    <type id="highway.ford" priority="1" numLanes="1" speed="2.78" allow="army" oneway="0"/>
    <type id="highway.living_street" priority="3" numLanes="1" speed="2.78" disallow="tram rail_urban rail rail_electric ship" oneway="0"/>
    <type id="highway.motorway" priority="13" numLanes="2" speed="44.44" allow="private emergency authority army vip passenger hov taxi bus coach delivery truck trailer motorcycle evehicle custom1 custom2" oneway="1"/>
    <type id="highway.motorway_link" priority="12" numLanes="1" speed="22.22" allow="private emergency authority army vip passenger hov taxi bus coach delivery truck trailer motorcycle evehicle custom1 custom2" oneway="1"/>
    <type id="highway.path" priority="1" numLanes="1" speed="2.78" allow="bicycle pedestrian" oneway="1" width="2.00"/>
    <type id="highway.pedestrian" priority="1" numLanes="1" speed="2.78" allow="pedestrian" oneway="1" width="2.00"/>
    <type id="highway.primary" priority="9" numLanes="2" speed="27.78" disallow="tram rail_urban rail rail_electric ship" oneway="0"/>
    <type id="highway.primary_link" priority="8" numLanes="1" speed="22.22" disallow="tram rail_urban rail rail_electric ship" oneway="0"/>
    <type id="highway.raceway" priority="14" numLanes="2" speed="83.33" allow="vip" oneway="0"/>
    <type id="highway.residential" priority="4" numLanes="1" speed="13.89" disallow="tram rail_urban rail rail_electric ship" oneway="0"/>
    <type id="highway.secondary" priority="7" numLanes="2" speed="27.78" disallow="tram rail_urban rail rail_electric ship" oneway="0"/>
    <type id="highway.secondary_link" priority="6" numLanes="1" speed="22.22" disallow="tram rail_urban rail rail_electric ship" oneway="0"/>
    <type id="highway.service" priority="2" numLanes="1" speed="5.56" allow="private pedestrian emergency authority army vip passenger hov taxi bus coach delivery truck trailer motorcycle moped bicycle pedestrian evehicle custom1 custom2" oneway="0"/>
    <type id="highway.services" priority="1" numLanes="1" speed="8.33" disallow="tram rail_urban rail rail_electric ship" oneway="0"/>
    <type id="highway.stairs" priority="1" numLanes="1" speed="1.39" allow="pedestrian" oneway="1" width="2.00"/>
    <type id="highway.step" priority="1" numLanes="1" speed="1.39" allow="pedestrian" oneway="1" width="2.00"/>
    <type id="highway.steps" priority="1" numLanes="1" speed="1.39" allow="pedestrian" oneway="1" width="2.00"/>
    <type id="highway.tertiary" priority="6" numLanes="1" speed="22.22" disallow="tram rail_urban rail rail_electric ship" oneway="0"/>
    <type id="highway.tertiary_link" priority="5" numLanes="1" speed="22.22" disallow="tram rail_urban rail rail_electric ship" oneway="0"/>
    <type id="highway.track" priority="1" numLanes="1" speed="5.56" disallow="tram rail_urban rail rail_electric ship" oneway="0"/>
    <type id="highway.trunk" priority="11" numLanes="2" speed="27.78" disallow="tram rail_urban rail rail_electric bicycle pedestrian ship" oneway="0"/>
    <type id="highway.trunk_link" priority="10" numLanes="1" speed="22.22" disallow="tram rail_urban rail rail_electric bicycle pedestrian ship" oneway="0"/>
    <type id="highway.unclassified" priority="5" numLanes="1" speed="13.89" disallow="tram rail_urban rail rail_electric ship" oneway="0"/>
    <type id="highway.unsurfaced" priority="1" numLanes="1" speed="8.33" disallow="tram rail_urban rail rail_electric ship" oneway="0"/>
    <type id="railway.light_rail" priority="15" numLanes="1" speed="27.78" allow="rail_urban" oneway="1"/>
    <type id="railway.preserved" priority="15" numLanes="1" speed="27.78" allow="rail" oneway="1"/>
    <type id="railway.rail" priority="15" numLanes="1" speed="83.33" allow="rail rail_electric" oneway="1"/>
    <type id="railway.subway" priority="15" numLanes="1" speed="27.78" allow="rail_urban" oneway="1"/>
    <type id="railway.tram" priority="15" numLanes="1" speed="13.89" allow="tram" oneway="1"/>

    <edge id="-109161038#0" from="3657852062" to="1250408501" priority="2" type="highway.service" shape="829.45,476.92 852.56,474.17 876.96,466.36 902.69,458.38 1171.62,401.42 1182.54,390.75 1187.20,378.28 1171.52,305.65 1260.27,287.20">
        <lane id="-109161038#0_0" index="0" allow="private pedestrian emergency authority army vip passenger hov taxi bus coach delivery truck trailer motorcycle moped bicycle pedestrian evehicle custom1 custom2" speed="5.56" length="544.27" shape="833.73,474.75 852.21,472.55 876.46,464.79 902.28,456.78 1170.81,399.91 1181.12,389.83 1185.48,378.15 1169.55,304.37 1259.94,285.58"/>
    </edge>
    <edge id="-109161038#1" from="1250408320" to="3657852062" priority="2" type="highway.service" shape="347.74,475.15 359.20,478.59 445.21,461.47 465.04,454.35 810.49,380.95 829.45,476.92">
        <lane id="-109161038#1_0" index="0" allow="private pedestrian emergency authority army vip passenger hov taxi bus coach delivery truck trailer motorcycle moped bicycle pedestrian evehicle custom1 custom2" speed="5.56" length="571.71" shape="358.95,476.79 359.28,476.89 444.77,459.88 464.59,452.76 811.79,378.99 830.20,472.17"/>
    </edge>
    <edge id="-109161038#2" from="4815868694" to="1250408320" priority="2" type="highway.service" shape="308.54,291.84 342.07,457.95 347.74,475.15">
        <lane id="-109161038#2_0" index="0" allow="private pedestrian emergency authority army vip passenger hov taxi bus coach delivery truck trailer motorcycle moped bicycle pedestrian evehicle custom1 custom2" speed="5.56" length="187.57" shape="311.10,296.18 343.67,457.52 348.31,471.60"/>
    </edge>
    <edge id="-109161038#3" from="2084811745" to="4815868694" priority="2" type="highway.service">
        <lane id="-109161038#3_0" index="0" allow="private pedestrian emergency authority army vip passenger hov taxi bus coach delivery truck trailer motorcycle moped bicycle pedestrian evehicle custom1 custom2" speed="5.56" length="39.86" shape="303.24,257.24 309.22,286.87"/>
    </edge>
    <edge id="-109161038#4" from="1250408237" to="2084811745" priority="2" type="highway.service" shape="283.06,172.36 294.61,222.81 300.65,252.77">
        <lane id="-109161038#4_0" index="0" allow="private pedestrian emergency authority army vip passenger hov taxi bus coach delivery truck trailer motorcycle moped bicycle pedestrian evehicle custom1 custom2" speed="5.56" length="82.31" shape="285.72,176.61 296.22,222.46 301.32,247.74"/>
    </edge>
    <edge id="-109161039#0" from="1250408237" to="1250408494" priority="2" type="highway.service" shape="283.06,172.36 552.73,109.20 744.08,70.79 883.98,41.40">
        <lane id="-109161039#0_0" index="0" allow="private pedestrian emergency authority army vip passenger hov taxi bus coach delivery truck trailer motorcycle moped bicycle pedestrian evehicle custom1 custom2" speed="5.56" length="615.09" shape="287.29,169.68 552.38,107.59 743.75,69.18 883.64,39.79"/>
    </edge>
    <edge id="-109161039#1" from="480585212" to="1250408237" priority="2" type="highway.service" shape="149.97,218.45 210.60,206.36 242.87,180.05 283.06,172.36">
        <lane id="-109161039#1_0" index="0" allow="private pedestrian emergency authority army vip passenger hov taxi bus coach delivery truck trailer motorcycle moped bicycle pedestrian evehicle custom1 custom2" speed="5.56" length="149.56" shape="148.59,217.04 209.87,204.82 242.15,178.51 278.19,171.61"/>
    </edge>
    <edge id="-109161057#0" from="5010080863" to="1250408374" priority="14" type="highway.raceway">
        <lane id="-109161057#0_0" index="0" allow="vip" speed="83.33" length="8.42" shape="359.06,199.30 362.29,197.20"/>
        <lane id="-109161057#0_1" index="1" allow="vip" speed="83.33" length="8.42" shape="360.85,202.07 364.09,199.97"/>
    </edge>
    <edge id="-109161057#1" from="2084811740" to="5010080863" priority="14" type="highway.raceway" shape="469.36,201.41 372.84,224.16 369.26,223.72 365.48,222.20 361.46,218.48 359.22,213.39 359.51,209.40 362.17,203.18">
        <lane id="-109161057#1_0" index="0" allow="vip" speed="83.33" length="126.83" shape="465.35,207.44 373.10,229.19 368.01,228.55 362.79,226.46 357.34,221.41 354.19,214.26 354.64,208.22 354.72,208.01"/>
        <lane id="-109161057#1_1" index="1" allow="vip" speed="83.33" length="126.83" shape="464.59,204.23 372.93,225.84 368.84,225.33 364.58,223.62 360.09,219.45 357.54,213.68 357.87,209.29"/>
    </edge>
    <edge id="-109161057#2" from="1250408533" to="2084811740" priority="14" type="highway.raceway" shape="559.59,159.92 565.19,161.85 568.67,164.32 570.64,169.70 570.37,174.71 567.03,179.78 559.89,182.47 469.36,201.41">
        <lane id="-109161057#2_0" index="0" allow="vip" speed="83.33" length="125.85" shape="567.66,157.54 572.79,161.18 575.64,168.95 575.24,176.32 570.28,183.85 561.28,187.23 474.68,205.35"/>
        <lane id="-109161057#2_1" index="1" allow="vip" speed="83.33" length="125.85" shape="566.48,160.75 570.05,163.27 572.31,169.45 571.99,175.25 568.11,181.14 560.36,184.06 474.00,202.12"/>
    </edge>
    <edge id="-109161057#3" from="1250408374" to="1250408533" priority="14" type="highway.raceway" shape="366.00,200.70 540.18,163.53 559.59,159.92">
        <lane id="-109161057#3_0" index="0" allow="vip" speed="83.33" length="200.90" shape="366.14,195.61 539.22,158.67 558.91,155.01"/>
        <lane id="-109161057#3_1" index="1" allow="vip" speed="83.33" length="200.90" shape="366.83,198.83 539.86,161.91 559.52,158.25"/>
    </edge>
    <edge id="-198341008#0" from="4815868682" to="2084811740" priority="2" type="highway.service" shape="343.93,243.40 471.56,215.79 469.36,201.41">
        <lane id="-198341008#0_0" index="0" allow="private pedestrian emergency authority army vip passenger hov taxi bus coach delivery truck trailer motorcycle moped bicycle pedestrian evehicle custom1 custom2" speed="5.56" length="145.13" shape="348.48,240.73 469.69,214.51 468.99,209.89"/>
    </edge>
    <edge id="-198341008#1" from="2084811745" to="4815868682" priority="2" type="highway.service">
        <lane id="-198341008#1_0" index="0" allow="private pedestrian emergency authority army vip passenger hov taxi bus coach delivery truck trailer motorcycle moped bicycle pedestrian evehicle custom1 custom2" speed="5.56" length="44.28" shape="304.99,250.14 339.17,242.74"/>
    </edge>
    <edge id="-26790904" from="3178650057" to="480585212" priority="4" type="highway.residential">
        <lane id="-26790904_0" index="0" disallow="tram rail_urban rail rail_electric ship" speed="13.89" length="20.88" shape="125.07,222.56 142.56,218.48"/>
    </edge>
    <edge id="-312053064#0" from="3178650007" to="3178650046" priority="2" type="highway.service" shape="145.39,0.00 148.95,16.10 152.46,31.98 155.88,47.51 159.17,62.41 162.37,76.89 165.85,92.71 169.41,108.80 172.82,124.27 176.22,139.65 179.51,154.55 102.08,170.76 79.52,175.90">
        <lane id="-312053064#0_0" index="0" allow="private pedestrian emergency authority army vip passenger hov taxi bus coach delivery truck trailer motorcycle moped bicycle pedestrian evehicle custom1 custom2" speed="5.56" length="260.52" shape="147.71,2.82 150.56,15.75 154.07,31.62 157.49,47.16 160.78,62.06 163.98,76.54 167.46,92.35 171.02,108.44 174.43,123.91 177.83,139.30 181.48,155.83 102.44,172.37 83.09,176.78"/>
    </edge>
    <edge id="-312053064#1" from="3178650046" to="3178650007" priority="2" type="highway.service" shape="79.52,175.90 76.38,161.35 72.95,145.53 69.45,129.35 66.15,114.08 62.86,98.89 59.49,83.34 56.16,67.93 52.81,52.46 49.53,37.26 46.12,21.50 69.73,16.78 145.39,0.00">
        <lane id="-312053064#1_0" index="0" allow="private pedestrian emergency authority army vip passenger hov taxi bus coach delivery truck trailer motorcycle moped bicycle pedestrian evehicle custom1 custom2" speed="5.56" length="259.55" shape="77.21,173.04 74.76,161.70 71.34,145.88 67.84,129.69 64.53,114.43 61.25,99.23 57.88,83.68 54.55,68.28 51.20,52.81 47.91,37.61 44.15,20.21 69.39,15.16 141.86,-0.91"/>
    </edge>
    <edge id="-361288430" from="3657852062" to="1250408320" priority="2" type="highway.service" shape="829.45,476.92 818.81,481.01 633.47,521.76 443.93,561.83 431.13,561.92 420.91,557.55 394.34,532.37 366.48,500.67 347.74,475.15">
        <lane id="-361288430_0" index="0" allow="private pedestrian emergency authority army vip passenger hov taxi bus coach delivery truck trailer motorcycle moped bicycle pedestrian evehicle custom1 custom2" speed="5.56" length="529.28" shape="826.09,479.98 819.29,482.59 633.82,523.38 444.10,563.48 430.80,563.57 419.98,558.95 393.15,533.51 365.20,501.70 353.05,485.16"/>
    </edge>
    <edge id="-401929348" from="480585212" to="3391470090" priority="1" type="highway.cycleway" shape="149.97,218.45 119.07,203.60 110.16,205.88 101.57,208.09 90.41,219.85 42.35,222.37">
        <lane id="-401929348_0" index="0" allow="bicycle" speed="5.56" length="112.30" width="1.00" shape="142.52,215.48 119.02,204.19 110.30,206.41 101.86,208.58 90.66,220.39 42.37,222.92"/>
    </edge>
    <edge id="-489342528" from="4815868693" to="4815868694" priority="2" type="highway.service">
        <lane id="-489342528_0" index="0" allow="private pedestrian emergency authority army vip passenger hov taxi bus coach delivery truck trailer motorcycle moped bicycle pedestrian evehicle custom1 custom2" speed="11.11" length="47.91" shape="350.90,285.15 313.54,292.53"/>
    </edge>
    <edge id="-489342529" from="4815868695" to="4815868693" priority="2" type="highway.service">
        <lane id="-489342529_0" index="0" allow="private pedestrian emergency authority army vip passenger hov taxi bus coach delivery truck trailer motorcycle moped bicycle pedestrian evehicle custom1 custom2" speed="11.11" length="44.98" shape="399.84,274.56 360.31,283.19"/>
    </edge>
    <edge id="-489342530#0" from="4815868696" to="2084811745" priority="2" type="highway.service">
        <lane id="-489342530#0_0" index="0" allow="private pedestrian emergency authority army vip passenger hov taxi bus coach delivery truck trailer motorcycle moped bicycle pedestrian evehicle custom1 custom2" speed="11.11" length="81.13" shape="224.61,269.94 295.50,252.35"/>
    </edge>
    <edge id="-489342530#1" from="4816735497" to="4815868696" priority="2" type="highway.service">
        <lane id="-489342530#1_0" index="0" allow="private pedestrian emergency authority army vip passenger hov taxi bus coach delivery truck trailer motorcycle moped bicycle pedestrian evehicle custom1 custom2" speed="11.11" length="71.04" shape="156.90,285.51 218.49,271.40"/>
    </edge>
    <edge id="-489440461#0" from="4816735501" to="4816735497" priority="2" type="highway.service">
        <lane id="-489440461#0_0" index="0" allow="private pedestrian emergency authority army vip passenger hov taxi bus coach delivery truck trailer motorcycle moped bicycle pedestrian evehicle custom1 custom2" speed="5.56" length="11.85" shape="152.92,297.03 152.06,293.13"/>
    </edge>
    <edge id="-489440461#1" from="4816735503" to="4816735501" priority="2" type="highway.service">
        <lane id="-489440461#1_0" index="0" allow="private pedestrian emergency authority army vip passenger hov taxi bus coach delivery truck trailer motorcycle moped bicycle pedestrian evehicle custom1 custom2" speed="5.56" length="14.86" shape="156.12,311.61 154.25,303.09"/>
    </edge>
    <edge id="-489440461#10" from="4817701560" to="4816735500" priority="2" type="highway.service">
        <lane id="-489440461#10_0" index="0" allow="private pedestrian emergency authority army vip passenger hov taxi bus coach delivery truck trailer motorcycle moped bicycle pedestrian evehicle custom1 custom2" speed="5.56" length="52.44" shape="190.83,471.73 181.34,426.52"/>
    </edge>
    <edge id="-489440461#11" from="4817701559" to="4817701560" priority="2" type="highway.service">
        <lane id="-489440461#11_0" index="0" allow="private pedestrian emergency authority army vip passenger hov taxi bus coach delivery truck trailer motorcycle moped bicycle pedestrian evehicle custom1 custom2" speed="5.56" length="51.44" shape="202.04,525.15 192.10,477.79"/>
    </edge>
    <edge id="-489440461#2" from="4816735504" to="4816735503" priority="2" type="highway.service">
        <lane id="-489440461#2_0" index="0" allow="private pedestrian emergency authority army vip passenger hov taxi bus coach delivery truck trailer motorcycle moped bicycle pedestrian evehicle custom1 custom2" speed="5.56" length="14.39" shape="159.19,325.60 157.45,317.66"/>
    </edge>
    <edge id="-489440461#3" from="4816735505" to="4816735504" priority="2" type="highway.service">
        <lane id="-489440461#3_0" index="0" allow="private pedestrian emergency authority army vip passenger hov taxi bus coach delivery truck trailer motorcycle moped bicycle pedestrian evehicle custom1 custom2" speed="5.56" length="14.97" shape="162.42,340.29 160.52,331.65"/>
    </edge>
    <edge id="-489440461#4" from="4816735506" to="4816735505" priority="2" type="highway.service">
        <lane id="-489440461#4_0" index="0" allow="private pedestrian emergency authority army vip passenger hov taxi bus coach delivery truck trailer motorcycle moped bicycle pedestrian evehicle custom1 custom2" speed="5.56" length="14.10" shape="165.46,354.08 163.75,346.35"/>
    </edge>
    <edge id="-489440461#5" from="4816735507" to="4816735506" priority="2" type="highway.service">
        <lane id="-489440461#5_0" index="0" allow="private pedestrian emergency authority army vip passenger hov taxi bus coach delivery truck trailer motorcycle moped bicycle pedestrian evehicle custom1 custom2" speed="5.56" length="15.34" shape="168.73,369.01 166.79,360.13"/>
    </edge>
    <edge id="-489440461#6" from="4816735508" to="4816735507" priority="2" type="highway.service">
        <lane id="-489440461#6_0" index="0" allow="private pedestrian emergency authority army vip passenger hov taxi bus coach delivery truck trailer motorcycle moped bicycle pedestrian evehicle custom1 custom2" speed="5.56" length="10.10" shape="171.03,378.94 170.13,375.12"/>
    </edge>
    <edge id="-489440461#7" from="4816735509" to="4816735508" priority="2" type="highway.service">
        <lane id="-489440461#7_0" index="0" allow="private pedestrian emergency authority army vip passenger hov taxi bus coach delivery truck trailer motorcycle moped bicycle pedestrian evehicle custom1 custom2" speed="5.56" length="14.62" shape="174.15,393.13 172.37,384.90"/>
    </edge>
    <edge id="-489440461#8" from="4816735510" to="4816735509" priority="2" type="highway.service">
        <lane id="-489440461#8_0" index="0" allow="private pedestrian emergency authority army vip passenger hov taxi bus coach delivery truck trailer motorcycle moped bicycle pedestrian evehicle custom1 custom2" speed="5.56" length="16.07" shape="177.54,408.83 175.46,399.19"/>
    </edge>
    <edge id="-489440461#9" from="4816735500" to="4816735510" priority="2" type="highway.service">
        <lane id="-489440461#9_0" index="0" allow="private pedestrian emergency authority army vip passenger hov taxi bus coach delivery truck trailer motorcycle moped bicycle pedestrian evehicle custom1 custom2" speed="5.56" length="11.89" shape="180.06,420.48 178.85,414.90"/>
    </edge>
    <edge id="-489532945" from="4815868683" to="4817701568" priority="2" type="highway.service">
        <lane id="-489532945_0" index="0" allow="private pedestrian emergency authority army vip passenger hov taxi bus coach delivery truck trailer motorcycle moped bicycle pedestrian evehicle custom1 custom2" speed="5.56" length="43.93" shape="351.07,251.17 389.55,242.66"/>
    </edge>
    <edge id="-489532946" from="4815868684" to="4817701569" priority="2" type="highway.service">
        <lane id="-489532946_0" index="0" allow="private pedestrian emergency authority army vip passenger hov taxi bus coach delivery truck trailer motorcycle moped bicycle pedestrian evehicle custom1 custom2" speed="5.56" length="43.65" shape="348.89,254.39 390.13,245.70"/>
    </edge>
    <edge id="-489532947" from="4815868685" to="4817701570" priority="2" type="highway.service">
        <lane id="-489532947_0" index="0" allow="private pedestrian emergency authority army vip passenger hov taxi bus coach delivery truck trailer motorcycle moped bicycle pedestrian evehicle custom1 custom2" speed="5.56" length="43.57" shape="349.66,256.99 390.82,248.27"/>
    </edge>
    <edge id="-489532948" from="4815868686" to="4817701571" priority="2" type="highway.service">
        <lane id="-489532948_0" index="0" allow="private pedestrian emergency authority army vip passenger hov taxi bus coach delivery truck trailer motorcycle moped bicycle pedestrian evehicle custom1 custom2" speed="5.56" length="43.09" shape="350.47,259.71 391.17,251.14"/>
    </edge>
    <edge id="-489532949" from="4815868687" to="4817701572" priority="2" type="highway.service">
        <lane id="-489532949_0" index="0" allow="private pedestrian emergency authority army vip passenger hov taxi bus coach delivery truck trailer motorcycle moped bicycle pedestrian evehicle custom1 custom2" speed="5.56" length="42.87" shape="351.14,262.03 391.57,253.23"/>
    </edge>
    <edge id="-489532950#0" from="4817701581" to="4815868693" priority="2" type="highway.service">
        <lane id="-489532950#0_0" index="0" allow="private pedestrian emergency authority army vip passenger hov taxi bus coach delivery truck trailer motorcycle moped bicycle pedestrian evehicle custom1 custom2" speed="11.11" length="6.92" shape="356.12,278.66 356.17,278.85"/>
    </edge>
    <edge id="-489532950#1" from="4817701579" to="4817701581" priority="2" type="highway.service">
        <lane id="-489532950#1_0" index="0" allow="private pedestrian emergency authority army vip passenger hov taxi bus coach delivery truck trailer motorcycle moped bicycle pedestrian evehicle custom1 custom2" speed="11.11" length="2.76" shape="354.73,274.00 354.80,274.23"/>
    </edge>
    <edge id="-489532950#10" from="4815868682" to="4815868683" priority="2" type="highway.service">
        <lane id="-489532950#10_0" index="0" allow="private pedestrian emergency authority army vip passenger hov taxi bus coach delivery truck trailer motorcycle moped bicycle pedestrian evehicle custom1 custom2" speed="11.11" length="10.81" shape="346.94,247.73 347.30,248.95"/>
    </edge>
    <edge id="-489532950#2" from="4817701577" to="4817701579" priority="2" type="highway.service">
        <lane id="-489532950#2_0" index="0" allow="private pedestrian emergency authority army vip passenger hov taxi bus coach delivery truck trailer motorcycle moped bicycle pedestrian evehicle custom1 custom2" speed="11.11" length="2.56" shape="353.98,271.46 354.03,271.65"/>
    </edge>
    <edge id="-489532950#3" from="4817701575" to="4817701577" priority="2" type="highway.service">
        <lane id="-489532950#3_0" index="0" allow="private pedestrian emergency authority army vip passenger hov taxi bus coach delivery truck trailer motorcycle moped bicycle pedestrian evehicle custom1 custom2" speed="11.11" length="2.37" shape="353.28,269.12 353.34,269.31"/>
    </edge>
    <edge id="-489532950#4" from="4817701573" to="4817701575" priority="2" type="highway.service">
        <lane id="-489532950#4_0" index="0" allow="private pedestrian emergency authority army vip passenger hov taxi bus coach delivery truck trailer motorcycle moped bicycle pedestrian evehicle custom1 custom2" speed="11.11" length="2.44" shape="352.60,266.81 352.66,267.00"/>
    </edge>
    <edge id="-489532950#5" from="4815868687" to="4817701573" priority="2" type="highway.service">
        <lane id="-489532950#5_0" index="0" allow="private pedestrian emergency authority army vip passenger hov taxi bus coach delivery truck trailer motorcycle moped bicycle pedestrian evehicle custom1 custom2" speed="11.11" length="2.35" shape="351.92,264.51 351.97,264.70"/>
    </edge>
    <edge id="-489532950#6" from="4815868686" to="4815868687" priority="2" type="highway.service">
        <lane id="-489532950#6_0" index="0" allow="private pedestrian emergency authority army vip passenger hov taxi bus coach delivery truck trailer motorcycle moped bicycle pedestrian evehicle custom1 custom2" speed="11.11" length="2.42" shape="351.24,262.24 351.30,262.43"/>
    </edge>
    <edge id="-489532950#7" from="4815868685" to="4815868686" priority="2" type="highway.service">
        <lane id="-489532950#7_0" index="0" allow="private pedestrian emergency authority army vip passenger hov taxi bus coach delivery truck trailer motorcycle moped bicycle pedestrian evehicle custom1 custom2" speed="11.11" length="2.85" shape="350.50,259.72 350.54,259.87"/>
    </edge>
    <edge id="-489532950#8" from="4815868684" to="4815868685" priority="2" type="highway.service">
        <lane id="-489532950#8_0" index="0" allow="private pedestrian emergency authority army vip passenger hov taxi bus coach delivery truck trailer motorcycle moped bicycle pedestrian evehicle custom1 custom2" speed="11.11" length="2.71" shape="349.69,257.01 349.77,257.28"/>
    </edge>
    <edge id="-489532950#9" from="4815868683" to="4815868684" priority="2" type="highway.service">
        <lane id="-489532950#9_0" index="0" allow="private pedestrian emergency authority army vip passenger hov taxi bus coach delivery truck trailer motorcycle moped bicycle pedestrian evehicle custom1 custom2" speed="11.11" length="2.66" shape="348.92,254.41 349.02,254.74"/>
    </edge>
    <edge id="-489532951" from="4817701573" to="4817701574" priority="2" type="highway.service">
        <lane id="-489532951_0" index="0" allow="private pedestrian emergency authority army vip passenger hov taxi bus coach delivery truck trailer motorcycle moped bicycle pedestrian evehicle custom1 custom2" speed="5.56" length="42.54" shape="351.83,264.28 391.99,255.85"/>
    </edge>
    <edge id="-489532952" from="4817701575" to="4817701576" priority="2" type="highway.service">
        <lane id="-489532952_0" index="0" allow="private pedestrian emergency authority army vip passenger hov taxi bus coach delivery truck trailer motorcycle moped bicycle pedestrian evehicle custom1 custom2" speed="5.56" length="42.20" shape="352.52,266.62 392.34,258.20"/>
    </edge>
    <edge id="-489532953" from="4817701577" to="4817701578" priority="2" type="highway.service">
        <lane id="-489532953_0" index="0" allow="private pedestrian emergency authority army vip passenger hov taxi bus coach delivery truck trailer motorcycle moped bicycle pedestrian evehicle custom1 custom2" speed="5.56" length="41.75" shape="353.20,268.89 392.63,260.79"/>
    </edge>
    <edge id="-489532954" from="4817701579" to="4817701580" priority="2" type="highway.service">
        <lane id="-489532954_0" index="0" allow="private pedestrian emergency authority army vip passenger hov taxi bus coach delivery truck trailer motorcycle moped bicycle pedestrian evehicle custom1 custom2" speed="5.56" length="41.01" shape="353.95,271.35 392.71,263.71"/>
    </edge>
    <edge id="-489532955" from="4817701581" to="4817701582" priority="2" type="highway.service">
        <lane id="-489532955_0" index="0" allow="private pedestrian emergency authority army vip passenger hov taxi bus coach delivery truck trailer motorcycle moped bicycle pedestrian evehicle custom1 custom2" speed="5.56" length="40.65" shape="358.22,273.30 393.12,266.34"/>
    </edge>
    <edge id="-512380915" from="5010080863" to="1250408533" priority="14" type="highway.raceway" shape="362.17,203.18 379.93,208.60 385.40,208.78 544.06,175.15 557.09,164.23 559.59,159.92">
        <lane id="-512380915_0" index="0" allow="vip" speed="83.33" length="205.21" shape="370.74,200.62 380.75,203.68 384.96,203.81 541.82,170.56 551.03,162.85"/>
        <lane id="-512380915_1" index="1" allow="vip" speed="83.33" length="205.21" shape="369.78,203.78 380.20,206.96 385.25,207.12 543.31,173.62 554.04,164.63"/>
    </edge>
    <edge id="109161038#0" from="1250408501" to="3657852062" priority="2" type="highway.service" shape="1260.27,287.20 1171.52,305.65 1187.20,378.28 1182.54,390.75 1171.62,401.42 902.69,458.38 876.96,466.36 852.56,474.17 829.45,476.92">