<?xml version="1.0" encoding="UTF-8"?>
<!-- generated on 2018-07-12 09:46:15.295504 by $Id$
  options: -n skoda-parking\skoda-parking.net.xml -e 50 -l -o skoda-parking\skoda-parking.trips.xml
-->
<routes xmlns:xsi="http://www.w3.org/2001/XMLSchema-instance" xsi:noNamespaceSchemaLocation="http://sumo.dlr.de/xsd/routes_file.xsd">
    <trip id="0" depart="0.00" from="109161038#1" to="489532959#0"/>
    <trip id="1" depart="1.00" from="312053064#0" to="109161038#4"/>
    <trip id="2" depart="2.00" from="109161038#0" to="489342530#0"/>
    <trip id="3" depart="3.00" from="489532958#7" to="-489532953"/>
    <trip id="4" depart="4.00" from="164249755#1" to="489440468#0"/>
    <trip id="5" depart="5.00" from="489440467#0" to="-489532951"/>
    <trip id="6" depart="6.00" from="312053071#2" to="-109161038#4"/>
    <trip id="7" depart="7.00" from="-109161038#1" to="489440461#1"/>
    <trip id="8" depart="8.00" from="109161038#3" to="489440452#7"/>
    <trip id="9" depart="9.00" from="312053071#3" to="109161038#2"/>
    <trip id="10" depart="10.00" from="489440453#0" to="-109161039#0"/>
    <trip id="11" depart="11.00" from="109161038#0" to="-489342530#0"/>
    <trip id="12" depart="12.00" from="-312053064#1" to="312053071#3"/>
    <trip id="13" depart="13.00" from="489532958#1" to="489532959#1"/>
    <trip id="14" depart="14.00" from="109161038#0" to="-109161039#0"/>
    <trip id="15" depart="15.00" from="489440465#1" to="109161038#1"/>
    <trip id="16" depart="16.00" from="109161038#0" to="361288430"/>
    <trip id="17" depart="17.00" from="489440453#0" to="312053071#3"/>
    <trip id="18" depart="18.00" from="312053064#1" to="489440455#1"/>
    <trip id="19" depart="19.00" from="109161038#1" to="-109161038#1"/>
    <trip id="20" depart="20.00" from="489440459#1" to="489440452#6"/>
    <trip id="21" depart="21.00" from="361288430" to="312053064#1"/>
    <trip id="22" depart="22.00" from="312053071#3" to="-109161039#0"/>
    <trip id="23" depart="23.00" from="164249755#1" to="109161038#1"/>
    <trip id="24" depart="24.00" from="109161038#1" to="489440456#0"/>
    <trip id="25" depart="25.00" from="109161038#2" to="-109161038#0"/>
    <trip id="26" depart="26.00" from="489440463#0" to="109161038#1"/>
    <trip id="27" depart="27.00" from="489532942#1" to="489532956#3"/>
    <trip id="28" depart="28.00" from="489532956#1" to="489440458#2"/>
    <trip id="29" depart="29.00" from="489440455#1" to="489532950#0"/>
    <trip id="30" depart="30.00" from="489440453#0" to="361288430"/>
    <trip id="31" depart="31.00" from="109161038#2" to="-109161039#0"/>
    <trip id="32" depart="32.00" from="109161039#0" to="-109161039#0"/>
    <trip id="33" depart="33.00" from="489440458#0" to="-109161038#1"/>
    <trip id="34" depart="34.00" from="-489532950#3" to="361288430"/>
    <trip id="35" depart="35.00" from="109161038#0" to="489532944#0"/>
    <trip id="36" depart="36.00" from="489440464#1" to="109161038#1"/>
    <trip id="37" depart="37.00" from="489532957#1" to="489532959#1"/>
    <trip id="38" depart="38.00" from="489440457#0" to="-489532950#4"/>
    <trip id="39" depart="39.00" from="-489342528" to="361288430"/>
    <trip id="40" depart="40.00" from="-312053064#1" to="489440465#1"/>
    <trip id="41" depart="41.00" from="489532957#1" to="361288430"/>
    <trip id="42" depart="42.00" from="489532958#6" to="-489440461#10"/>
    <trip id="43" depart="43.00" from="109161039#0" to="489440464#0"/>
    <trip id="44" depart="44.00" from="489532960#2" to="312053071#5"/>
    <trip id="45" depart="45.00" from="-361288430" to="-109161038#0"/>
    <trip id="46" depart="46.00" from="489532956#3" to="489440462#0"/>
    <trip id="47" depart="47.00" from="109161038#1" to="-361288430"/>
    <trip id="48" depart="48.00" from="-312053064#1" to="-312053064#0"/>
    <trip id="49" depart="49.00" from="-109161038#3" to="489532957#0"/>
</routes>
