<?xml version="1.0" encoding="UTF-8"?>

<!-- generated on 07/20/18 22:21:48 by SUMO duarouter Version 0.32.0
<?xml version="1.0" encoding="UTF-8"?>

<configuration xmlns:xsi="http://www.w3.org/2001/XMLSchema-instance" xsi:noNamespaceSchemaLocation="http://sumo.dlr.de/xsd/duarouterConfiguration.xsd">

    <input>
        <net-file value="test_sda0\test_sda0.net.xml"/>
        <route-files value="test_sda0\test_sda0.trips.xml"/>
    </input>

    <output>
        <output-file value="test_sda0\test_sda0.rou.xml"/>
        <alternatives-output value="test_sda0\test_sda0.rou.alt.xml"/>
    </output>

    <processing>
        <ignore-errors value="true"/>
        <routing-algorithm value="astar"/>
    </processing>

</configuration>
-->

<routes xmlns:xsi="http://www.w3.org/2001/XMLSchema-instance" xsi:noNamespaceSchemaLocation="http://sumo.dlr.de/xsd/routes_file.xsd">
    <vehicle id="0" depart="0.00">
        <route edges="4 1 2"/>
    </vehicle>
    <vehicle id="2" depart="2.00">
        <route edges="5"/>
    </vehicle>
    <vehicle id="6" depart="6.00">
        <route edges="5"/>
    </vehicle>
    <vehicle id="8" depart="8.00">
        <route edges="5"/>
    </vehicle>
    <vehicle id="9" depart="9.00">
        <route edges="1"/>
    </vehicle>
    <vehicle id="11" depart="11.00">
        <route edges="2"/>
    </vehicle>
    <vehicle id="12" depart="12.00">
        <route edges="4 1 2 3"/>
    </vehicle>
    <vehicle id="13" depart="13.00">
        <route edges="6 5 7"/>
    </vehicle>
    <vehicle id="14" depart="14.00">
        <route edges="6 1 2"/>
    </vehicle>
    <vehicle id="15" depart="15.00">
        <route edges="3 4 1"/>
    </vehicle>
    <vehicle id="16" depart="16.00">
        <route edges="2 3 4"/>
    </vehicle>
    <vehicle id="18" depart="18.00">
        <route edges="2 3 7"/>
    </vehicle>
    <vehicle id="19" depart="19.00">
        <route edges="2 3 7"/>
    </vehicle>
    <vehicle id="21" depart="21.00">
        <route edges="2"/>
    </vehicle>
    <vehicle id="22" depart="22.00">
        <route edges="1 2 3 4"/>
    </vehicle>
    <vehicle id="23" depart="23.00">
        <route edges="6 5"/>
    </vehicle>
    <vehicle id="24" depart="24.00">
        <route edges="3 4"/>
    </vehicle>
    <vehicle id="26" depart="26.00">
        <route edges="6 1 2"/>
    </vehicle>
    <vehicle id="29" depart="29.00">
        <route edges="2 3 4"/>
    </vehicle>
    <vehicle id="30" depart="30.00">
        <route edges="1 2 3 4"/>
    </vehicle>
    <vehicle id="32" depart="32.00">
        <route edges="4 1 2"/>
    </vehicle>
    <vehicle id="33" depart="33.00">
        <route edges="2 3 4"/>
    </vehicle>
    <vehicle id="34" depart="34.00">
        <route edges="6 1 2"/>
    </vehicle>
    <vehicle id="35" depart="35.00">
        <route edges="2 3 4"/>
    </vehicle>
    <vehicle id="36" depart="36.00">
        <route edges="4 1 2 3 7"/>
    </vehicle>
    <vehicle id="37" depart="37.00">
        <route edges="4 1 2"/>
    </vehicle>
    <vehicle id="38" depart="38.00">
        <route edges="4 1 2 3"/>
    </vehicle>
    <vehicle id="40" depart="40.00">
        <route edges="2 3"/>
    </vehicle>
    <vehicle id="41" depart="41.00">
        <route edges="3 4 1 2"/>
    </vehicle>
    <vehicle id="42" depart="42.00">
        <route edges="3"/>
    </vehicle>
    <vehicle id="44" depart="44.00">
        <route edges="6 1 2 3"/>
    </vehicle>
    <vehicle id="45" depart="45.00">
        <route edges="1 2"/>
    </vehicle>
</routes>
