<flows>
    <flow id="a" from="7" to="1" begin="0" end="180" number="25"/>
    <flow id="b" from="5" to="3" begin="0" end="180" number="25"/>
    <flow id="c" from="0" to="1" begin="0" end="180" number="6"/>
    <flow id="d" from="0" to="3" begin="0" end="180" number="5"/>
</flows>

