<?xml version="1.0" encoding="UTF-8"?>

<!-- generated on Wed May 13 19:18:17 2015 by SUMO duarouter Version 0.22.0
<?xml version="1.0" encoding="UTF-8"?>

<configuration xmlns:xsi="http://www.w3.org/2001/XMLSchema-instance" xsi:noNamespaceSchemaLocation="http://sumo.dlr.de/xsd/duarouterConfiguration.xsd">

    <input>
        <net-file value="artificialT-junction/artificialT-junction.net.xml"/>
        <flow-files value="artificialT-junction/artificialT-junction.flows.xml"/>
    </input>

    <output>
        <output-file value="artificialT-junction/artificialT-junction.rou.xml"/>
    </output>

    <processing>
        <ignore-errors value="true"/>
        <routing-algorithm value="astar"/>
    </processing>

    <report>
        <no-warnings value="true"/>
    </report>

</configuration>
-->

<routes xmlns:xsi="http://www.w3.org/2001/XMLSchema-instance" xsi:noNamespaceSchemaLocation="http://sumo.dlr.de/xsd/routes_file.xsd">
    <vehicle id="1" depart="5.00">
        <route edges="0 1"/>
    </vehicle>
    <vehicle id="2" depart="10.00">
        <route edges="7 1"/>
    </vehicle>
    <vehicle id="3" depart="10.00">
        <route edges="5 3"/>
    </vehicle>
    <vehicle id="4" depart="10.00">
        <route edges="5 4"/>
    </vehicle>
    <vehicle id="5" depart="10.00">
        <route edges="0 3"/>
    </vehicle>
    <vehicle id="6" depart="13.40">
        <route edges="7 1"/>
    </vehicle>
    <vehicle id="7" depart="13.40">
        <route edges="5 3"/>
    </vehicle>
    <vehicle id="8" depart="15.00">
        <route edges="7 4"/>
    </vehicle>
    <vehicle id="9" depart="16.80">
        <route edges="7 1"/>
    </vehicle>
    <vehicle id="10" depart="16.80">
        <route edges="5 3"/>
    </vehicle>
    <vehicle id="11" depart="20.20">
        <route edges="7 1"/>
    </vehicle>
    <vehicle id="12" depart="20.20">
        <route edges="5 3"/>
    </vehicle>
    <vehicle id="13" depart="23.60">
        <route edges="7 1"/>
    </vehicle>
    <vehicle id="14" depart="23.60">
        <route edges="5 3"/>
    </vehicle>
    <vehicle id="15" depart="27.00">
        <route edges="7 1"/>
    </vehicle>
    <vehicle id="16" depart="27.00">
        <route edges="5 3"/>
    </vehicle>
    <vehicle id="17" depart="30.40">
        <route edges="7 1"/>
    </vehicle>
    <vehicle id="18" depart="30.40">
        <route edges="5 3"/>
    </vehicle>
    <vehicle id="19" depart="33.80">
        <route edges="7 1"/>
    </vehicle>
    <vehicle id="20" depart="33.80">
        <route edges="5 3"/>
    </vehicle>
    <vehicle id="21" depart="34.17">
        <route edges="0 1"/>
    </vehicle>
    <vehicle id="22" depart="37.20">
        <route edges="7 1"/>
    </vehicle>
    <vehicle id="23" depart="37.20">
        <route edges="5 3"/>
    </vehicle>
    <vehicle id="24" depart="38.33">
        <route edges="0 3"/>
    </vehicle>
    <vehicle id="25" depart="40.60">
        <route edges="7 1"/>
    </vehicle>
    <vehicle id="26" depart="40.60">
        <route edges="5 3"/>
    </vehicle>
    <vehicle id="27" depart="44.00">
        <route edges="7 1"/>
    </vehicle>
    <vehicle id="28" depart="44.00">
        <route edges="5 3"/>
    </vehicle>
    <vehicle id="29" depart="47.40">
        <route edges="7 1"/>
    </vehicle>
    <vehicle id="30" depart="47.40">
        <route edges="5 3"/>
    </vehicle>
    <vehicle id="31" depart="50.80">
        <route edges="7 1"/>
    </vehicle>
    <vehicle id="32" depart="50.80">
        <route edges="5 3"/>
    </vehicle>
    <vehicle id="33" depart="54.20">
        <route edges="7 1"/>
    </vehicle>
    <vehicle id="34" depart="54.20">
        <route edges="5 3"/>
    </vehicle>
    <vehicle id="35" depart="57.60">
        <route edges="7 1"/>
    </vehicle>
    <vehicle id="36" depart="57.60">
        <route edges="5 3"/>
    </vehicle>
    <vehicle id="37" depart="61.00">
        <route edges="7 1"/>
    </vehicle>
    <vehicle id="38" depart="61.00">
        <route edges="5 3"/>
    </vehicle>
    <vehicle id="39" depart="63.33">
        <route edges="0 1"/>
    </vehicle>
    <vehicle id="40" depart="64.40">
        <route edges="7 1"/>
    </vehicle>
    <vehicle id="41" depart="64.40">
        <route edges="5 3"/>
    </vehicle>
    <vehicle id="42" depart="66.67">
        <route edges="0 3"/>
    </vehicle>
    <vehicle id="43" depart="67.80">
        <route edges="7 1"/>
    </vehicle>
    <vehicle id="44" depart="67.80">
        <route edges="5 3"/>
    </vehicle>
    <vehicle id="45" depart="71.20">
        <route edges="7 1"/>
    </vehicle>
    <vehicle id="46" depart="71.20">
        <route edges="5 3"/>
    </vehicle>
    <vehicle id="47" depart="74.60">
        <route edges="7 1"/>
    </vehicle>
    <vehicle id="48" depart="74.60">
        <route edges="5 3"/>
    </vehicle>
    <vehicle id="49" depart="78.00">
        <route edges="7 1"/>
    </vehicle>
    <vehicle id="50" depart="78.00">
        <route edges="5 3"/>
    </vehicle>
    <vehicle id="51" depart="81.40">
        <route edges="7 1"/>
    </vehicle>
    <vehicle id="52" depart="81.40">
        <route edges="5 3"/>
    </vehicle>
    <vehicle id="53" depart="84.80">
        <route edges="7 1"/>
    </vehicle>
    <vehicle id="54" depart="84.80">
        <route edges="5 3"/>
    </vehicle>
    <vehicle id="55" depart="88.20">
        <route edges="7 1"/>
    </vehicle>
    <vehicle id="56" depart="88.20">
        <route edges="5 3"/>
    </vehicle>
    <vehicle id="57" depart="91.60">
        <route edges="7 1"/>
    </vehicle>
    <vehicle id="58" depart="91.60">
        <route edges="5 3"/>
    </vehicle>
    <vehicle id="59" depart="92.50">
        <route edges="0 1"/>
    </vehicle>
    <vehicle id="60" depart="95.00">
        <route edges="0 3"/>
    </vehicle>
    <vehicle id="61" depart="95.00">
        <route edges="7 1"/>
    </vehicle>
    <vehicle id="62" depart="95.00">
        <route edges="5 3"/>
    </vehicle>
    <vehicle id="63" depart="95.00">
        <route edges="5 4"/>
    </vehicle>
    <vehicle id="64" depart="97.50">
        <route edges="7 4"/>
    </vehicle>
    <vehicle id="65" depart="98.40">
        <route edges="7 1"/>
    </vehicle>
    <vehicle id="66" depart="98.40">
        <route edges="5 3"/>
    </vehicle>
    <vehicle id="67" depart="101.80">
        <route edges="7 1"/>
    </vehicle>
    <vehicle id="68" depart="101.80">
        <route edges="5 3"/>
    </vehicle>
    <vehicle id="69" depart="105.20">
        <route edges="7 1"/>
    </vehicle>
    <vehicle id="70" depart="105.20">
        <route edges="5 3"/>
    </vehicle>
    <vehicle id="71" depart="108.60">
        <route edges="7 1"/>
    </vehicle>
    <vehicle id="72" depart="108.60">
        <route edges="5 3"/>
    </vehicle>
    <vehicle id="73" depart="112.00">
        <route edges="7 1"/>
    </vehicle>
    <vehicle id="74" depart="112.00">
        <route edges="5 3"/>
    </vehicle>
    <vehicle id="75" depart="115.40">
        <route edges="7 1"/>
    </vehicle>
    <vehicle id="76" depart="115.40">
        <route edges="5 3"/>
    </vehicle>
    <vehicle id="77" depart="118.80">
        <route edges="7 1"/>
    </vehicle>
    <vehicle id="78" depart="118.80">
        <route edges="5 3"/>
    </vehicle>
    <vehicle id="79" depart="121.66">
        <route edges="0 1"/>
    </vehicle>
    <vehicle id="80" depart="122.20">
        <route edges="7 1"/>
    </vehicle>
    <vehicle id="81" depart="122.20">
        <route edges="5 3"/>
    </vehicle>
    <vehicle id="82" depart="123.33">
        <route edges="0 3"/>
    </vehicle>
    <vehicle id="83" depart="125.60">
        <route edges="7 1"/>
    </vehicle>
    <vehicle id="84" depart="125.60">
        <route edges="5 3"/>
    </vehicle>
    <vehicle id="85" depart="129.00">
        <route edges="7 1"/>
    </vehicle>
    <vehicle id="86" depart="129.00">
        <route edges="5 3"/>
    </vehicle>
    <vehicle id="87" depart="132.40">
        <route edges="7 1"/>
    </vehicle>
    <vehicle id="88" depart="132.40">
        <route edges="5 3"/>
    </vehicle>
    <vehicle id="89" depart="135.80">
        <route edges="7 1"/>
    </vehicle>
    <vehicle id="90" depart="135.80">
        <route edges="5 3"/>
    </vehicle>
    <vehicle id="91" depart="139.20">
        <route edges="7 1"/>
    </vehicle>
    <vehicle id="92" depart="139.20">
        <route edges="5 3"/>
    </vehicle>
    <vehicle id="93" depart="142.60">
        <route edges="7 1"/>
    </vehicle>
    <vehicle id="94" depart="142.60">
        <route edges="5 3"/>
    </vehicle>
    <vehicle id="95" depart="146.00">
        <route edges="7 1"/>
    </vehicle>
    <vehicle id="96" depart="146.00">
        <route edges="5 3"/>
    </vehicle>
    <vehicle id="97" depart="149.40">
        <route edges="7 1"/>
    </vehicle>
    <vehicle id="98" depart="149.40">
        <route edges="5 3"/>
    </vehicle>
    <vehicle id="99" depart="150.83">
        <route edges="0 1"/>
    </vehicle>
    <vehicle id="100" depart="151.66">
        <route edges="0 3"/>
    </vehicle>
    <vehicle id="101" depart="152.80">
        <route edges="7 1"/>
    </vehicle>
    <vehicle id="102" depart="152.80">
        <route edges="5 3"/>
    </vehicle>
    <vehicle id="103" depart="156.20">
        <route edges="7 1"/>
    </vehicle>
    <vehicle id="104" depart="156.20">
        <route edges="5 3"/>
    </vehicle>
    <vehicle id="105" depart="159.60">
        <route edges="7 1"/>
    </vehicle>
    <vehicle id="106" depart="159.60">
        <route edges="5 3"/>
    </vehicle>
    <vehicle id="107" depart="163.00">
        <route edges="7 1"/>
    </vehicle>
    <vehicle id="108" depart="163.00">
        <route edges="5 3"/>
    </vehicle>
    <vehicle id="109" depart="166.40">
        <route edges="7 1"/>
    </vehicle>
    <vehicle id="110" depart="166.40">
        <route edges="5 3"/>
    </vehicle>
    <vehicle id="111" depart="169.80">
        <route edges="7 1"/>
    </vehicle>
    <vehicle id="112" depart="169.80">
        <route edges="5 3"/>
    </vehicle>
    <vehicle id="113" depart="173.20">
        <route edges="7 1"/>
    </vehicle>
    <vehicle id="114" depart="173.20">
        <route edges="5 3"/>
    </vehicle>
    <vehicle id="115" depart="176.60">
        <route edges="7 1"/>
    </vehicle>
    <vehicle id="116" depart="176.60">
        <route edges="5 3"/>
    </vehicle>
</routes>
