<flows>
    <flow id="a" from="7" to="1" begin="0" end="10" number="3"/>
   <!-- <flow id="a" from="7" to="1" begin="0" end="360" number="60"/>
    <flow id="b" from="5" to="3" begin="0" end="360" number="60"/>
    <flow id="c" from="0" to="1" begin="0" end="360" number="33"/>
    <flow id="d" from="0" to="3" begin="0" end="360" number="30"/>-->
</flows>

