<flows>
    <!--<flow id="a" from="7" to="7" begin="0" end="5" number="3"/>-->
    <flow id="a" from="7" to="1" begin="10" end="360" number="80"/>
    <flow id="b" from="5" to="3" begin="10" end="360" number="80"/>

    <flow id="a" from="7" to="4" begin="6" end="360" number="30"/>
    <flow id="b" from="5" to="4" begin="11" end="360" number="30"/>

    <flow id="c" from="0" to="1" begin="3" end="360" number="50"/>
    <flow id="d" from="0" to="3" begin="9" end="360" number="50"/>
</flows>

