<?xml version="1.0" encoding="UTF-8"?>

<!-- generated on Thu Sep 11 14:46:22 2014 by SUMO duarouter Version 0.21.0
<?xml version="1.0" encoding="UTF-8"?>

<configuration xmlns:xsi="http://www.w3.org/2001/XMLSchema-instance" xsi:noNamespaceSchemaLocation="http://sumo-sim.org/xsd/duarouterConfiguration.xsd">

    <input>
        <net-file value="/home/wmatex/Projects/Agents/agentdrivecity/test/sumo_maps/dresden/dresden.net.xml"/>
        <trip-files value="/home/wmatex/Projects/Agents/agentdrivecity/test/sumo_maps/dresden/dresden.trips.xml"/>
    </input>

    <output>
        <output-file value="/home/wmatex/Projects/Agents/agentdrivecity/test/sumo_maps/dresden/dresden.rou.xml"/>
    </output>

    <processing>
        <ignore-errors value="true"/>
        <routing-algorithm value="astar"/>
    </processing>

</configuration>
-->

<routes xmlns:xsi="http://www.w3.org/2001/XMLSchema-instance" xsi:noNamespaceSchemaLocation="http://sumo-sim.org/xsd/routes_file.xsd">
    <vehicle id="0" depart="0.00">
        <route edges="4229119 -167574361#3 -167574361#2 -167574361#1 -167574361#0 -166518453#1 -166518453#0 -166518734#2 -166518734#1 28701862 -216865529#4 -216865529#3 -216865529#2"/>
    </vehicle>
    <vehicle id="4" depart="0.40">
        <route edges="-167574361#11 -167574361#10 -167574361#9 -167574361#8 -167574361#7 -167574361#6 -167574361#5 -167574361#4 -167574361#3 -167574361#2 -167574361#1 -167574361#0 -4229116#2 32782176#4"/>
    </vehicle>
    <vehicle id="5" depart="0.50">
        <route edges="32782176#3 32782176#4 -4073148#1 -4073148#0 4073147#1"/>
    </vehicle>
    <vehicle id="6" depart="0.60">
        <route edges="-4229119 -32782176#0"/>
    </vehicle>
    <!--<vehicle id="7" depart="0.70">
        <route edges="-4229117 32782176#3 -4229116#1 -4229116#0 4073147#2"/>
    </vehicle>
    <vehicle id="9" depart="0.90">
        <route edges="-32782176#3 4229117 167574361#2 167574361#3 167574361#4 167574361#5 167574361#6 4073149"/>
    </vehicle>
    <vehicle id="11" depart="1.10">
        <route edges="32782176#1 32782176#2 32782176#3 -4229116#1 -4229116#0 -4073147#1 4073148#0 4073148#1"/>
    </vehicle>
    <vehicle id="13" depart="1.30">
        <route edges="216865529#1 216865529#2 216865529#3 216865529#4 -28701862 166518734#1 166518734#2 166518453#0 166518453#1 -4229116#2"/>
    </vehicle>
    <vehicle id="15" depart="1.50">
        <route edges="-4073148#1 -4073148#0 4073147#1 4229116#0 4229116#1 32782176#4 4073148#2 166518453#0 166518453#1"/>
    </vehicle>
    <vehicle id="17" depart="1.70">
        <route edges="4229098 -166518734#2 -166518734#1 28701862 -216865529#4 -216865529#3 -216865529#2 -216865529#1 4229097#0 4229097#1 4229097#2 4073151#0 4073151#1"/>
    </vehicle>
    <vehicle id="18" depart="1.80">
        <route edges="4229119 -167574361#3 -167574361#2 -167574361#1 -167574361#0 -4229116#2 -4229116#1 -4229116#0 4073147#2"/>
    </vehicle>
    <vehicle id="19" depart="1.90">
        <route edges="-28701862 166518734#1 166518734#2 166518453#0 166518453#1 167574361#0 167574361#1 -4229117"/>
    </vehicle>
    <vehicle id="20" depart="2.00">
        <route edges="-28701862 166518734#1 166518734#2 -4073148#2 -32782176#4 4229116#2 -166518453#1 -166518453#0 -166518734#2 -166518734#1 28701862"/>
    </vehicle>
    <vehicle id="21" depart="2.10">
        <route edges="-32782176#4 4229116#2 -166518453#1 -166518453#0 -4073148#2"/>
    </vehicle>
    <vehicle id="23" depart="2.30">
        <route edges="-4073147#2 4229116#0 4229116#1 4229116#2 167574361#0 167574361#1 167574361#2 167574361#3 167574361#4 167574361#5 167574361#6 4073149"/>
    </vehicle>
    <vehicle id="24" depart="2.40">
        <route edges="4073147#1 4229116#0 4229116#1 32782176#4 4073148#2 -166518734#2 -166518734#1 28701862"/>
    </vehicle>
    <vehicle id="25" depart="2.50">
        <route edges="4073148#2 166518453#0 166518453#1 -4229116#2 -32782176#3 -32782176#2 -32782176#1 4229119"/>
    </vehicle>
    <vehicle id="26" depart="2.60">
        <route edges="32782176#3 32782176#4 4073148#2 -166518734#2 -166518734#1 28701862 -216865529#4 -216865529#3 -216865529#2 -216865529#1 4229097#0"/>
    </vehicle>
    <vehicle id="27" depart="2.70">
        <route edges="-32782176#5 -32782176#4 4229116#2 167574361#0 167574361#1 167574361#2 167574361#3 167574361#4 167574361#5 167574361#6 167574361#7 167574361#8 167574361#9 167574361#10 167574361#11"/>
    </vehicle>
    <vehicle id="29" depart="2.90">
        <route edges="167574361#7 167574361#8 167574361#9 167574361#10 167574361#11"/>
    </vehicle>
    <vehicle id="30" depart="3.00">
        <route edges="-4229117 32782176#3 32782176#4 4073148#2 -166518734#2 -166518734#1 28701862 -216865529#4 -216865529#3 -216865529#2 -216865529#1 4229097#0 4229097#1"/>
    </vehicle>
    <vehicle id="31" depart="3.10">
        <route edges="-4073148#1 -4073148#0 4073147#1 4073147#2"/>
    </vehicle>
    <vehicle id="32" depart="3.20">
        <route edges="-4229116#0 -4073147#1 4073148#0 4073148#1 4073148#2 -166518734#2 -166518734#1 28701862 -216865529#4 -216865529#3 -216865529#2 -216865529#1 4229097#0 4229097#1 4229097#2"/>
    </vehicle>
    <vehicle id="33" depart="3.30">
        <route edges="167574361#4 167574361#5 167574361#6 4073149 32782176#0 4229119 -167574361#3 -167574361#2 -167574361#1 -167574361#0 -4229116#2"/>
    </vehicle>
    <vehicle id="35" depart="3.50">
        <route edges="-4073148#0 4073147#1 4229116#0 4229116#1 32782176#4 4073148#2 -166518734#2 -166518734#1 28701862 -216865529#4 -216865529#3 -216865529#2 -216865529#1 4229097#0 4229097#1 4229097#2 4073151#0 4073151#1"/>
    </vehicle>
    <vehicle id="36" depart="3.60">
        <route edges="-4229119"/>
    </vehicle>
    <vehicle id="37" depart="3.70">
        <route edges="4073149 32782176#0 32782176#1 32782176#2 4229117 167574361#2 167574361#3 -4229119"/>
    </vehicle>
    <vehicle id="38" depart="3.80">
        <route edges="-4073149 -167574361#6 -167574361#5 -167574361#4 -167574361#3 -167574361#2 -4229117 32782176#3 4229116#2 167574361#0"/>
    </vehicle>
    <vehicle id="39" depart="3.90">
        <route edges="-4073147#2 4229116#0 4229116#1 4229116#2 167574361#0 167574361#1 167574361#2 167574361#3 167574361#4 167574361#5 167574361#6 167574361#7 167574361#8 167574361#9 167574361#10 167574361#11"/>
    </vehicle>
    <vehicle id="40" depart="4.00">
        <route edges="4073147#1 4229116#0 4229116#1 4229116#2 167574361#0 167574361#1 167574361#2"/>
    </vehicle>
    <vehicle id="41" depart="4.10">
        <route edges="4073148#1 -32782176#4 -32782176#3 -32782176#2 -32782176#1 4229119"/>
    </vehicle>
    <vehicle id="42" depart="4.20">
        <route edges="32782176#0 32782176#1 32782176#2 32782176#3 4229116#2 167574361#0 167574361#1"/>
    </vehicle>
    <vehicle id="43" depart="4.30">
        <route edges="216865529#2 216865529#3 216865529#4 -28701862 166518734#1 166518734#2 166518453#0 166518453#1 167574361#0 167574361#1"/>
    </vehicle>
    <vehicle id="45" depart="4.50">
        <route edges="-4073147#2 4229116#0 4229116#1 4229116#2 167574361#0 167574361#1 167574361#2 167574361#3 167574361#4 167574361#5 167574361#6 4073149"/>
    </vehicle>
    <vehicle id="46" depart="4.60">
        <route edges="167574361#2 167574361#3 -4229119 32782176#1 32782176#2 32782176#3 32782176#4 4073148#2 -166518734#2"/>
    </vehicle>
    <vehicle id="48" depart="4.80">
        <route edges="-4073148#2 -32782176#4 4229116#2 -166518453#1 -166518453#0 -166518734#2 -166518734#1 28701862 -216865529#4 -216865529#3 -216865529#2 -216865529#1 4229097#0 4229097#1 4229097#2"/>
    </vehicle>
    <vehicle id="49" depart="4.90">
        <route edges="-4073147#2 4229116#0 4229116#1 32782176#4 -4073148#1 -4073148#0 4073147#1 4073147#2"/>
    </vehicle>
    <vehicle id="50" depart="5.00">
        <route edges="216865529#3 216865529#4 -28701862 166518734#1 166518734#2 -4073148#2 -32782176#4"/>
    </vehicle>
    <vehicle id="51" depart="5.10">
        <route edges="-166518453#0 -4073148#2 -4073148#1 -4073148#0 -4073147#0"/>
    </vehicle>
    <vehicle id="52" depart="5.20">
        <route edges="32782176#3 4229116#2 167574361#0 167574361#1 167574361#2 167574361#3 -4229119 32782176#1 32782176#2 4229117"/>
    </vehicle>
    <vehicle id="53" depart="5.30">
        <route edges="-4229117 32782176#3 -4229116#1 -4229116#0 -4073147#1"/>
    </vehicle>
    <vehicle id="54" depart="5.40">
        <route edges="-167574361#11 -167574361#10 -167574361#9 -167574361#8 -167574361#7 -167574361#6 -167574361#5 -167574361#4 -167574361#3 -167574361#2 -167574361#1 -167574361#0 -166518453#1 -166518453#0"/>
    </vehicle>
    <vehicle id="55" depart="5.50">
        <route edges="4229117 167574361#2 167574361#3 167574361#4 167574361#5 167574361#6"/>
    </vehicle>
    <vehicle id="57" depart="5.70">
        <route edges="216865529#1 216865529#2 216865529#3 216865529#4 -28701862 166518734#1 166518734#2 166518453#0 166518453#1 167574361#0 167574361#1 167574361#2 167574361#3 167574361#4 167574361#5 167574361#6 167574361#7 167574361#8 167574361#9 167574361#10"/>
    </vehicle>
    <vehicle id="58" depart="5.80">
        <route edges="216865529#0 216865529#1 216865529#2"/>
    </vehicle>
    <vehicle id="60" depart="6.00">
        <route edges="166518453#0 166518453#1 -4229116#2 -4229116#1 -4229116#0 -4073147#1 -4073147#0"/>
    </vehicle>
    <vehicle id="61" depart="6.10">
        <route edges="-4073147#2 -4073147#1 4073148#0 4073148#1 4073148#2 -166518734#2"/>
    </vehicle>
    <vehicle id="62" depart="6.20">
        <route edges="32782176#4 -4073148#1 -4073148#0 4073147#1 4229116#0 4229116#1 -32782176#3 4229117"/>
    </vehicle>
    <vehicle id="64" depart="6.40">
        <route edges="4073147#1 4229116#0 4229116#1 32782176#4 4073148#2 -4229098"/>
    </vehicle>
    <vehicle id="69" depart="6.90">
        <route edges="32782176#0 32782176#1 32782176#2 32782176#3 32782176#4 4073148#2 166518453#0"/>
    </vehicle>
    <vehicle id="70" depart="7.00">
        <route edges="-4073149 -167574361#6 -167574361#5 -167574361#4 -167574361#3 -167574361#2 -4229117 32782176#3 4229116#2"/>
    </vehicle>
    <vehicle id="71" depart="7.10">
        <route edges="-4073148#1 -4073148#0 4073147#1 4229116#0 4229116#1 4229116#2 167574361#0 167574361#1 167574361#2 167574361#3 -4229119"/>
    </vehicle>
    <vehicle id="74" depart="7.40">
        <route edges="4229117 -167574361#1 -167574361#0 -4229116#2 32782176#4 -4073148#1 -4073148#0"/>
    </vehicle>
    <vehicle id="75" depart="7.50">
        <route edges="216865529#2 216865529#3 216865529#4 -28701862 166518734#1 166518734#2 -4073148#2 -4073148#1"/>
    </vehicle>
    <vehicle id="77" depart="7.70">
        <route edges="-167574361#8 -167574361#7 -167574361#6 -167574361#5 -167574361#4 -167574361#3 -167574361#2 -4229117 32782176#3 4229116#2"/>
    </vehicle>
    <vehicle id="79" depart="7.90">
        <route edges="4073148#0 4073148#1 -32782176#4 4229116#2 167574361#0 167574361#1 -4229117"/>
    </vehicle>
    <vehicle id="80" depart="8.00">
        <route edges="-32782176#1 4229119 -167574361#3 -167574361#2 -167574361#1 -167574361#0 -4229116#2 -32782176#3 4229117"/>
    </vehicle>
    <vehicle id="83" depart="8.30">
        <route edges="-4229117 -32782176#2 -32782176#1 4229119 167574361#4 167574361#5 167574361#6 167574361#7 167574361#8 167574361#9 167574361#10 167574361#11"/>
    </vehicle>
    <vehicle id="84" depart="8.40">
        <route edges="4073148#2 166518453#0 166518453#1 -4229116#2 32782176#4"/>
    </vehicle>
    <vehicle id="85" depart="8.50">
        <route edges="4229098 166518453#0 166518453#1 167574361#0 167574361#1 167574361#2 167574361#3 -4229119 32782176#1"/>
    </vehicle>
    <vehicle id="87" depart="8.70">
        <route edges="-167574361#9 -167574361#8 -167574361#7 4073149"/>
    </vehicle>
    <vehicle id="88" depart="8.80">
        <route edges="-4229117 -32782176#2 -32782176#1 4229119 -167574361#3 -167574361#2 -167574361#1 -167574361#0 -4229116#2"/>
    </vehicle>
    <vehicle id="90" depart="9.00">
        <route edges="-28701862 166518734#1 166518734#2 166518453#0 166518453#1 167574361#0 167574361#1 -4229117 32782176#3"/>
    </vehicle>
    <vehicle id="92" depart="9.20">
        <route edges="-216865529#2"/>
    </vehicle>
    <vehicle id="93" depart="9.30">
        <route edges="-4073147#2 4229116#0 4229116#1 4229116#2 167574361#0 167574361#1 167574361#2 167574361#3 -4229119 32782176#1"/>
    </vehicle>
    <vehicle id="96" depart="9.60">
        <route edges="-167574361#3 -167574361#2 -167574361#1 -167574361#0 -4229116#2 32782176#4 -4073148#1 -4073148#0 4073147#1"/>
    </vehicle>
    <vehicle id="97" depart="9.70">
        <route edges="4073147#0 4073148#0 4073148#1 4073148#2 -166518734#2 -166518734#1 28701862 -216865529#4 -216865529#3 -216865529#2 -216865529#1 4229097#0 4229097#1 4229097#2 4073151#0 4073151#1"/>
    </vehicle>
    <vehicle id="98" depart="9.80">
        <route edges="216865529#2 216865529#3 216865529#4 -28701862 166518734#1 166518734#2 -4229098"/>
    </vehicle>
    <vehicle id="99" depart="9.90">
        <route edges="-4229117 32782176#3 32782176#4 4073148#2 -4229098"/>
    </vehicle>
    <vehicle id="101" depart="10.10">
        <route edges="-166518453#1 -166518453#0 -4073148#2 -4073148#1 -4073148#0 4073147#1"/>
    </vehicle>
    <vehicle id="102" depart="10.20">
        <route edges="-4073147#2 4229116#0 4229116#1 4229116#2 167574361#0 167574361#1 167574361#2 167574361#3 -4229119 32782176#1"/>
    </vehicle>
    <vehicle id="103" depart="10.30">
        <route edges="216865529#2 216865529#3 216865529#4 -28701862"/>
    </vehicle>
    <vehicle id="104" depart="10.40">
        <route edges="167574361#6 4073149"/>
    </vehicle>
    <vehicle id="107" depart="10.70">
        <route edges="-4073147#2 4229116#0 4229116#1 4229116#2 167574361#0 167574361#1 167574361#2 167574361#3 167574361#4 167574361#5 167574361#6 167574361#7 167574361#8 167574361#9 167574361#10"/>
    </vehicle>
    <vehicle id="108" depart="10.80">
        <route edges="216865529#2 216865529#3 216865529#4 -28701862 166518734#1 166518734#2 166518453#0 166518453#1 167574361#0 167574361#1"/>
    </vehicle>
    <vehicle id="109" depart="10.90">
        <route edges="-4073147#2 4229116#0 4229116#1 4229116#2 167574361#0 167574361#1 167574361#2 167574361#3 167574361#4 167574361#5 167574361#6 4073149"/>
    </vehicle>
    <vehicle id="111" depart="11.10">
        <route edges="-32782176#5 -4073148#1 -4073148#0 4073147#1 4229116#0 4229116#1 32782176#4"/>
    </vehicle>
    <vehicle id="112" depart="11.20">
        <route edges="-166518453#1 -166518453#0 -4073148#2 -32782176#4 -32782176#3"/>
    </vehicle>
    <vehicle id="113" depart="11.30">
        <route edges="4229119 -167574361#3 -167574361#2 -167574361#1 -167574361#0 -166518453#1 -166518453#0 -166518734#2 -166518734#1 28701862 -216865529#4 -216865529#3 -216865529#2 -216865529#1 4229097#0 4229097#1 4229097#2 4073151#0 4073151#1"/>
    </vehicle>
    <vehicle id="115" depart="11.50">
        <route edges="-4229117 32782176#3 -4229116#1 -4229116#0 -4073147#1"/>
    </vehicle>
    <vehicle id="116" depart="11.60">
        <route edges="-167574361#11 -167574361#10 -167574361#9 -167574361#8 -167574361#7 -167574361#6 -167574361#5 -167574361#4 -167574361#3 -167574361#2 -167574361#1 -167574361#0 -4229116#2 32782176#4"/>
    </vehicle>
    <vehicle id="117" depart="11.70">
        <route edges="-4073147#2 4229116#0 4229116#1 4229116#2 167574361#0 167574361#1 167574361#2 167574361#3 167574361#4 167574361#5 167574361#6 167574361#7"/>
    </vehicle>
    <vehicle id="119" depart="11.90">
        <route edges="166518734#2 -4073148#2 -4073148#1"/>
    </vehicle>
    <vehicle id="122" depart="12.20">
        <route edges="-28701862 166518734#1 166518734#2 166518453#0 166518453#1 -4229116#2"/>
    </vehicle>
    <vehicle id="123" depart="12.30">
        <route edges="-32782176#2 -32782176#1 4229119 -167574361#3 -167574361#2 -167574361#1 -167574361#0 -166518453#1 -166518453#0 -166518734#2 -166518734#1 28701862 -216865529#4 -216865529#3 -216865529#2 -216865529#1 4229097#0 4229097#1 4229097#2 4073151#0 4073151#1"/>
    </vehicle>
    <vehicle id="125" depart="12.50">
        <route edges="-28701862 166518734#1 166518734#2 -4073148#2 -32782176#4 4229116#2 -166518453#1 -166518453#0 -166518734#2 -166518734#1 28701862 -216865529#4 -216865529#3 -216865529#2"/>
    </vehicle>
    <vehicle id="128" depart="12.80">
        <route edges="167574361#1 -4229117 32782176#3 -4229116#1 -4229116#0 -4073147#1 4073148#0"/>
    </vehicle>
    <vehicle id="129" depart="12.90">
        <route edges="4073149 32782176#0 4229119 -167574361#3 -167574361#2 -167574361#1 -167574361#0 -166518453#1 -166518453#0 -166518734#2 -166518734#1 28701862 -216865529#4 -216865529#3 -216865529#2 -216865529#1 4229097#0 4229097#1 4229097#2 4073151#0 4073151#1"/>
    </vehicle>
    <vehicle id="131" depart="13.10">
        <route edges="-167574361#5 -167574361#4 -167574361#3 -167574361#2 -4229117 32782176#3 4229116#2"/>
    </vehicle>
    <vehicle id="132" depart="13.20">
        <route edges="4229116#2 167574361#0 167574361#1 167574361#2 167574361#3 -4229119 32782176#1 32782176#2 4229117"/>
    </vehicle>
    <vehicle id="133" depart="13.30">
        <route edges="166518734#2 166518453#0 166518453#1 -4229116#2 32782176#4 4073148#2 -166518734#2 -166518734#1 28701862 -216865529#4 -216865529#3 -216865529#2"/>
    </vehicle>
    <vehicle id="136" depart="13.60">
        <route edges="-167574361#9 -167574361#8 -167574361#7 -167574361#6 -167574361#5 -167574361#4 -167574361#3 -167574361#2 -167574361#1 -167574361#0 -166518453#1 -166518453#0 -4229098"/>
    </vehicle>
    <vehicle id="137" depart="13.70">
        <route edges="216865529#3 216865529#4 -28701862 166518734#1 166518734#2 -4073148#2 -32782176#4 -4229116#1 -4229116#0 -4073147#1"/>
    </vehicle>
    <vehicle id="138" depart="13.80">
        <route edges="-167574361#11 -167574361#10 -167574361#9 -167574361#8 -167574361#7 -167574361#6 -167574361#5 -167574361#4 -4229119 32782176#1 32782176#2 4229117"/>
    </vehicle>
    <vehicle id="139" depart="13.90">
        <route edges="4229117 -167574361#1 -167574361#0 -4229116#2"/>
    </vehicle>
    <vehicle id="140" depart="14.00">
        <route edges="4073149"/>
    </vehicle>
    <vehicle id="141" depart="14.10">
        <route edges="4073149 32782176#0 4229119 -167574361#3 -167574361#2 -167574361#1 -167574361#0 -166518453#1 -166518453#0 -4073148#2"/>
    </vehicle>
    <vehicle id="142" depart="14.20">
        <route edges="4229119 167574361#4 167574361#5 167574361#6 167574361#7 167574361#8 167574361#9"/>
    </vehicle>
    <vehicle id="143" depart="14.30">
        <route edges="167574361#5 167574361#6 4073149 32782176#0 4229119 -167574361#3 -167574361#2 -167574361#1 -167574361#0 -166518453#1 -166518453#0 -166518734#2 -166518734#1 28701862 -216865529#4 -216865529#3 -216865529#2"/>
    </vehicle>
    <vehicle id="144" depart="14.40">
        <route edges="4229098 166518453#0 166518453#1 -4229116#2"/>
    </vehicle>
    <vehicle id="146" depart="14.60">
        <route edges="216865529#2 216865529#3 216865529#4 -28701862 166518734#1 166518734#2 166518453#0 166518453#1 -4229116#2 32782176#4 4073148#2 -166518734#2 -166518734#1 28701862 -216865529#4 -216865529#3 -216865529#2 -216865529#1 4229097#0"/>
    </vehicle>
    <vehicle id="148" depart="14.80">
        <route edges="-4073147#2 4229116#0 4229116#1 4229116#2 167574361#0 167574361#1 167574361#2 167574361#3 167574361#4 167574361#5 167574361#6 167574361#7 167574361#8 167574361#9 167574361#10"/>
    </vehicle>
    <vehicle id="149" depart="14.90">
        <route edges="32782176#4 4073148#2 -4229098"/>
    </vehicle>
    <vehicle id="151" depart="15.10">
        <route edges="-4073148#2 -32782176#4 4229116#2 167574361#0 167574361#1 167574361#2 167574361#3 -4229119"/>
    </vehicle>
    <vehicle id="154" depart="15.40">
        <route edges="-4073147#1 4073148#0 4073148#1 -32782176#4 4229116#2 -166518453#1 -166518453#0 -4073148#2 -4073148#1 -4073148#0 4073147#1"/>
    </vehicle>
    <vehicle id="155" depart="15.50">
        <route edges="-4229119 32782176#1 32782176#2 4229117 167574361#2 167574361#3 167574361#4 167574361#5 167574361#6 167574361#7 167574361#8 167574361#9 167574361#10 167574361#11"/>
    </vehicle>
    <vehicle id="156" depart="15.60">
        <route edges="166518734#0 166518734#1 166518734#2 166518453#0 166518453#1 167574361#0 167574361#1 167574361#2 167574361#3 167574361#4 167574361#5 167574361#6 4073149 32782176#0"/>
    </vehicle>
    <vehicle id="158" depart="15.80">
        <route edges="-166518453#0 -4073148#2 32782176#5"/>
    </vehicle>
    <vehicle id="159" depart="15.90">
        <route edges="216865529#2 216865529#3 216865529#4 -28701862 166518734#1 166518734#2 166518453#0 166518453#1 -4229116#2 32782176#4 4073148#2 -166518734#2"/>
    </vehicle>
    <vehicle id="160" depart="16.00">
        <route edges="166518734#2 166518453#0 166518453#1 -4229116#2 32782176#4 4073148#2 -166518734#2 -166518734#1 -166518734#0"/>
    </vehicle>
    <vehicle id="163" depart="16.30">
        <route edges="166518734#2 -4073148#2 32782176#5"/>
    </vehicle>
    <vehicle id="164" depart="16.40">
        <route edges="-28701862 166518734#1 166518734#2 166518453#0 166518453#1 167574361#0 167574361#1 167574361#2 167574361#3 -4229119"/>
    </vehicle>
    <vehicle id="165" depart="16.50">
        <route edges="-4229116#2 32782176#4 4073148#2 -166518734#2 -166518734#1 -166518734#0"/>
    </vehicle>
    <vehicle id="166" depart="16.60">
        <route edges="4073148#2 -4229098"/>
    </vehicle>
    <vehicle id="167" depart="16.70">
        <route edges="216865529#3 216865529#4 -28701862 166518734#1 166518734#2 -4073148#2 -32782176#4 -32782176#3 -32782176#2 -32782176#1 4229119 -167574361#3"/>
    </vehicle>
    <vehicle id="169" depart="16.90">
        <route edges="-167574361#11 -167574361#10 -167574361#9 -167574361#8 -167574361#7 -167574361#6 -167574361#5 -167574361#4 -167574361#3 -167574361#2 -4229117 32782176#3 4229116#2"/>
    </vehicle>
    <vehicle id="170" depart="17.00">
        <route edges="166518734#0 166518734#1 166518734#2 -4229098"/>
    </vehicle>
    <vehicle id="171" depart="17.10">
        <route edges="4229116#2 -166518453#1 -166518453#0 -4073148#2 -4073148#1 -4073148#0 4073147#1"/>
    </vehicle>
    <vehicle id="172" depart="17.20">
        <route edges="166518734#1 166518734#2 -4073148#2 -32782176#4 4229116#2 -166518453#1 -166518453#0 -166518734#2 -166518734#1 28701862 -216865529#4 -216865529#3 -216865529#2 -216865529#1"/>
    </vehicle>
    <vehicle id="174" depart="17.40">
        <route edges="166518453#0 166518453#1 167574361#0 167574361#1 167574361#2 167574361#3 167574361#4 167574361#5 167574361#6"/>
    </vehicle>
    <vehicle id="175" depart="17.50">
        <route edges="4073148#2 166518453#0 166518453#1 -4229116#2 -32782176#3 -32782176#2 -32782176#1 4229119"/>
    </vehicle>
    <vehicle id="176" depart="17.60">
        <route edges="-4229117 32782176#3 -4229116#1 -4229116#0 -4073147#1 -4073147#0"/>
    </vehicle>
    <vehicle id="178" depart="17.80">
        <route edges="-216865529#2 -216865529#1 4229097#0"/>
    </vehicle>
    <vehicle id="179" depart="17.90">
        <route edges="4229119 -167574361#3 -167574361#2 -167574361#1 -167574361#0 -4229116#2 -4229116#1 -4229116#0 4073147#2"/>
    </vehicle>
    <vehicle id="180" depart="18.00">
        <route edges="32782176#3 -4229116#1 -4229116#0 -4073147#1 -4073147#0"/>
    </vehicle>
    <vehicle id="181" depart="18.10">
        <route edges="216865529#2 216865529#3 216865529#4 -28701862 166518734#1 166518734#2 -4073148#2 -32782176#4 -32782176#3 4229117"/>
    </vehicle>
    <vehicle id="182" depart="18.20">
        <route edges="-4073147#1 4073148#0 4073148#1 4073148#2 -4229098"/>
    </vehicle>
    <vehicle id="184" depart="18.40">
        <route edges="4073147#0 4073147#1 4229116#0 4229116#1 4229116#2 167574361#0 167574361#1 167574361#2 167574361#3 -4229119"/>
    </vehicle>
    <vehicle id="185" depart="18.50">
        <route edges="4073148#1 4073148#2 -166518734#2 -166518734#1 28701862 -216865529#4 -216865529#3 -216865529#2"/>
    </vehicle>
    <vehicle id="187" depart="18.70">
        <route edges="-32782176#2 -32782176#1 4229119 -167574361#3 -167574361#2 -167574361#1 -167574361#0 -166518453#1 -166518453#0 -4073148#2"/>
    </vehicle>
    <vehicle id="189" depart="18.90">
        <route edges="-32782176#2 -32782176#1 4229119 -167574361#3 -167574361#2 -167574361#1"/>
    </vehicle>
    <vehicle id="191" depart="19.10">
        <route edges="4073148#2"/>
    </vehicle>
    <vehicle id="194" depart="19.40">
        <route edges="216865529#2 216865529#3 216865529#4 -28701862 166518734#1 166518734#2 166518453#0 166518453#1 -4229116#2 32782176#4 4073148#2 -166518734#2 -166518734#1 28701862 -216865529#4 -216865529#3 -216865529#2"/>
    </vehicle>
    <vehicle id="195" depart="19.50">
        <route edges="-167574361#6 -167574361#5 -167574361#4 -167574361#3 -167574361#2 -167574361#1 -167574361#0 -166518453#1 -166518453#0 -166518734#2 -166518734#1"/>
    </vehicle>
    <vehicle id="196" depart="19.60">
        <route edges="32782176#0 4229119 -167574361#3 -167574361#2 -167574361#1 -167574361#0 -166518453#1 -166518453#0 -166518734#2 -166518734#1 28701862 -216865529#4 -216865529#3 -216865529#2"/>
    </vehicle>
    <vehicle id="197" depart="19.70">
        <route edges="-32782176#4 -32782176#3 -32782176#2 -32782176#1"/>
    </vehicle>
    <vehicle id="198" depart="19.80">
        <route edges="4229119 167574361#4 167574361#5 167574361#6 4073149"/>
    </vehicle>
    <vehicle id="199" depart="19.90">
        <route edges="167574361#6 4073149 32782176#0 4229119 -167574361#3 -167574361#2 -167574361#1 -167574361#0 -166518453#1 -166518453#0 -166518734#2 -166518734#1 28701862 -216865529#4 -216865529#3 -216865529#2 -216865529#1 4229097#0 4229097#1 4229097#2 4073151#0 4073151#1"/>
    </vehicle>
    <vehicle id="200" depart="20.00">
        <route edges="-4073147#1 4073148#0 4073148#1 4073148#2 -166518734#2 -166518734#1 28701862 -216865529#4 -216865529#3 -216865529#2"/>
    </vehicle>
    <vehicle id="204" depart="20.40">
        <route edges="4229119 -167574361#3 -167574361#2 -167574361#1 -167574361#0 -4229116#2 -4229116#1 -4229116#0 -4073147#1"/>
    </vehicle>
    <vehicle id="208" depart="20.80">
        <route edges="-166518453#1 -166518453#0 -4073148#2 -32782176#4 4229116#2 167574361#0 167574361#1 167574361#2 167574361#3 167574361#4 167574361#5 167574361#6 167574361#7 167574361#8"/>
    </vehicle>
    <vehicle id="209" depart="20.90">
        <route edges="166518453#0 166518453#1 -4229116#2 -4229116#1 -4229116#0 -4073147#1 -4073147#0"/>
    </vehicle>
    <vehicle id="210" depart="21.00">
        <route edges="216865529#4 -28701862 166518734#1 166518734#2 166518453#0"/>
    </vehicle>
    <vehicle id="211" depart="21.10">
        <route edges="166518734#1 166518734#2 -4073148#2 -32782176#4 -4229116#1 -4229116#0 -4073147#1"/>
    </vehicle>
    <vehicle id="212" depart="21.20">
        <route edges="4229098 -166518734#2 -166518734#1 28701862 -216865529#4 -216865529#3 -216865529#2 -216865529#1 4229097#0 4229097#1 4229097#2"/>
    </vehicle>
    <vehicle id="214" depart="21.40">
        <route edges="-167574361#7 -167574361#6 -167574361#5 -167574361#4 -167574361#3 -167574361#2 -167574361#1 -167574361#0 -166518453#1 -166518453#0 -166518734#2 -166518734#1 28701862 -216865529#4 -216865529#3 -216865529#2 -216865529#1 4229097#0 4229097#1 4229097#2 4073151#0 4073151#1"/>
    </vehicle>
    <vehicle id="215" depart="21.50">
        <route edges="4073147#1 4229116#0 4229116#1 4229116#2"/>
    </vehicle>
    <vehicle id="219" depart="21.90">
        <route edges="-4229119 32782176#1 32782176#2 4229117 167574361#2 167574361#3 167574361#4 167574361#5 167574361#6 167574361#7 167574361#8 167574361#9 167574361#10"/>
    </vehicle>
    <vehicle id="220" depart="22.00">
        <route edges="-4073147#2 -4073147#1 4073148#0 4073148#1"/>
    </vehicle>
    <vehicle id="224" depart="22.40">
        <route edges="-167574361#11 -167574361#10 -167574361#9 -167574361#8 -167574361#7 -167574361#6 -167574361#5 -167574361#4 -167574361#3 -167574361#2 -167574361#1 -167574361#0 -4229116#2 -4229116#1 -4229116#0 4073147#2"/>
    </vehicle>
    <vehicle id="226" depart="22.60">
        <route edges="-32782176#4 -4229116#1 -4229116#0 -4073147#1 4073148#0 4073148#1 32782176#5 32782176#6 32782176#7"/>
    </vehicle>
    <vehicle id="227" depart="22.70">
        <route edges="216865529#2 216865529#3 216865529#4 -28701862 166518734#1 166518734#2 166518453#0 166518453#1 -4229116#2 32782176#4 4073148#2 -166518734#2 -166518734#1 28701862 -216865529#4 -216865529#3 -216865529#2 -216865529#1 4229097#0 4229097#1 4229097#2 4073151#0 4073151#1"/>
    </vehicle>
    <vehicle id="229" depart="22.90">
        <route edges="4073147#1 4229116#0 4229116#1 4229116#2 -166518453#1 -166518453#0 -4073148#2"/>
    </vehicle>
    <vehicle id="230" depart="23.00">
        <route edges="-28701862 166518734#1 166518734#2 -4073148#2 -32782176#4 4229116#2 -166518453#1 -166518453#0 -166518734#2 -166518734#1 28701862 -216865529#4 -216865529#3 -216865529#2"/>
    </vehicle>
    <vehicle id="231" depart="23.10">
        <route edges="216865529#2 216865529#3 216865529#4 -28701862 166518734#1 166518734#2 -4229098"/>
    </vehicle>
    <vehicle id="232" depart="23.20">
        <route edges="216865529#2 216865529#3 216865529#4 -28701862 166518734#1 166518734#2 166518453#0 166518453#1"/>
    </vehicle>
    <vehicle id="233" depart="23.30">
        <route edges="-4073147#2 -4073147#1 4073148#0 4073148#1 4073148#2 -166518734#2 -166518734#1 28701862 -216865529#4 -216865529#3"/>
    </vehicle>
    <vehicle id="234" depart="23.40">
        <route edges="216865529#0 216865529#1 216865529#2 216865529#3 216865529#4 -28701862 166518734#1 166518734#2 -4073148#2 -4073148#1 -4073148#0 4073147#1"/>
    </vehicle>