<?xml version="1.0" encoding="UTF-8"?>

<!-- generated on Thu May 14 14:32:09 2015 by SUMO duarouter Version 0.22.0
<?xml version="1.0" encoding="UTF-8"?>

<configuration xmlns:xsi="http://www.w3.org/2001/XMLSchema-instance" xsi:noNamespaceSchemaLocation="http://sumo.dlr.de/xsd/duarouterConfiguration.xsd">

    <input>
        <net-file value="artificialX-junction/artificialX-junction.net.xml"/>
        <flow-files value="artificialX-junction/artificialX-junction.flows.xml"/>
    </input>

    <output>
        <output-file value="artificialX-junction/artificialX-junction.rou.xml"/>
    </output>

    <processing>
        <ignore-errors value="true"/>
        <routing-algorithm value="astar"/>
    </processing>

    <report>
        <no-warnings value="true"/>
    </report>

</configuration>
-->

<routes xmlns:xsi="http://www.w3.org/2001/XMLSchema-instance" xsi:noNamespaceSchemaLocation="http://sumo.dlr.de/xsd/routes_file.xsd">
    <vehicle id="1" depart="10.00">
        <route edges="7 1"/>
    </vehicle>
    <vehicle id="2" depart="10.00">
        <route edges="0 2"/>
    </vehicle>
    <vehicle id="3" depart="12.12">
        <route edges="7 1"/>
    </vehicle>
    <vehicle id="4" depart="12.12">
        <route edges="0 2"/>
    </vehicle>
    <vehicle id="5" depart="14.25">
        <route edges="7 1"/>
    </vehicle>
    <vehicle id="6" depart="14.25">
        <route edges="0 2"/>
    </vehicle>
    <vehicle id="7" depart="16.38">
        <route edges="7 1"/>
    </vehicle>
    <vehicle id="8" depart="16.38">
        <route edges="0 2"/>
    </vehicle>
    <vehicle id="9" depart="18.50">
        <route edges="7 1"/>
    </vehicle>
    <vehicle id="10" depart="18.50">
        <route edges="0 2"/>
    </vehicle>
    <vehicle id="11" depart="20.62">
        <route edges="7 1"/>
    </vehicle>
    <vehicle id="12" depart="20.62">
        <route edges="0 2"/>
    </vehicle>
    <vehicle id="13" depart="22.75">
        <route edges="7 1"/>
    </vehicle>
    <vehicle id="14" depart="22.75">
        <route edges="0 2"/>
    </vehicle>
    <vehicle id="15" depart="24.88">
        <route edges="7 1"/>
    </vehicle>
    <vehicle id="16" depart="24.88">
        <route edges="0 2"/>
    </vehicle>
    <vehicle id="17" depart="27.00">
        <route edges="7 1"/>
    </vehicle>
    <vehicle id="18" depart="27.00">
        <route edges="0 2"/>
    </vehicle>
    <vehicle id="19" depart="29.12">
        <route edges="7 1"/>
    </vehicle>
    <vehicle id="20" depart="29.12">
        <route edges="0 2"/>
    </vehicle>
    <vehicle id="21" depart="31.25">
        <route edges="7 1"/>
    </vehicle>
    <vehicle id="22" depart="31.25">
        <route edges="0 2"/>
    </vehicle>
    <vehicle id="23" depart="33.38">
        <route edges="7 1"/>
    </vehicle>
    <vehicle id="24" depart="33.38">
        <route edges="0 2"/>
    </vehicle>
    <vehicle id="25" depart="35.50">
        <route edges="7 1"/>
    </vehicle>
    <vehicle id="26" depart="35.50">
        <route edges="0 2"/>
    </vehicle>
    <vehicle id="27" depart="37.62">
        <route edges="7 1"/>
    </vehicle>
    <vehicle id="28" depart="37.62">
        <route edges="0 2"/>
    </vehicle>
    <vehicle id="29" depart="39.75">
        <route edges="7 1"/>
    </vehicle>
    <vehicle id="30" depart="39.75">
        <route edges="0 2"/>
    </vehicle>
    <vehicle id="31" depart="41.88">
        <route edges="7 1"/>
    </vehicle>
    <vehicle id="32" depart="41.88">
        <route edges="0 2"/>
    </vehicle>
    <vehicle id="33" depart="44.00">
        <route edges="7 1"/>
    </vehicle>
    <vehicle id="34" depart="44.00">
        <route edges="0 2"/>
    </vehicle>
    <vehicle id="35" depart="46.12">
        <route edges="7 1"/>
    </vehicle>
    <vehicle id="36" depart="46.12">
        <route edges="0 2"/>
    </vehicle>
    <vehicle id="37" depart="48.25">
        <route edges="7 1"/>
    </vehicle>
    <vehicle id="38" depart="48.25">
        <route edges="0 2"/>
    </vehicle>
    <vehicle id="39" depart="50.38">
        <route edges="7 1"/>
    </vehicle>
    <vehicle id="40" depart="50.38">
        <route edges="0 2"/>
    </vehicle>
    <vehicle id="41" depart="52.50">
        <route edges="7 1"/>
    </vehicle>
    <vehicle id="42" depart="52.50">
        <route edges="0 2"/>
    </vehicle>
    <vehicle id="43" depart="54.62">
        <route edges="7 1"/>
    </vehicle>
    <vehicle id="44" depart="54.62">
        <route edges="0 2"/>
    </vehicle>
    <vehicle id="45" depart="56.75">
        <route edges="7 1"/>
    </vehicle>
    <vehicle id="46" depart="56.75">
        <route edges="0 2"/>
    </vehicle>
    <vehicle id="47" depart="58.88">
        <route edges="7 1"/>
    </vehicle>
    <vehicle id="48" depart="58.88">
        <route edges="0 2"/>
    </vehicle>
    <vehicle id="49" depart="61.00">
        <route edges="7 1"/>
    </vehicle>
    <vehicle id="50" depart="61.00">
        <route edges="0 2"/>
    </vehicle>
    <vehicle id="51" depart="63.12">
        <route edges="7 1"/>
    </vehicle>
    <vehicle id="52" depart="63.12">
        <route edges="0 2"/>
    </vehicle>
    <vehicle id="53" depart="65.25">
        <route edges="7 1"/>
    </vehicle>
    <vehicle id="54" depart="65.25">
        <route edges="0 2"/>
    </vehicle>
    <vehicle id="55" depart="67.38">
        <route edges="7 1"/>
    </vehicle>
    <vehicle id="56" depart="67.38">
        <route edges="0 2"/>
    </vehicle>
    <vehicle id="57" depart="69.50">
        <route edges="7 1"/>
    </vehicle>
    <vehicle id="58" depart="69.50">
        <route edges="0 2"/>
    </vehicle>
    <vehicle id="59" depart="71.62">
        <route edges="7 1"/>
    </vehicle>
    <vehicle id="60" depart="71.62">
        <route edges="0 2"/>
    </vehicle>
    <vehicle id="61" depart="73.75">
        <route edges="7 1"/>
    </vehicle>
    <vehicle id="62" depart="73.75">
        <route edges="0 2"/>
    </vehicle>
    <vehicle id="63" depart="75.88">
        <route edges="7 1"/>
    </vehicle>
    <vehicle id="64" depart="75.88">
        <route edges="0 2"/>
    </vehicle>
    <vehicle id="65" depart="78.00">
        <route edges="7 1"/>
    </vehicle>
    <vehicle id="66" depart="78.00">
        <route edges="0 2"/>
    </vehicle>
    <vehicle id="67" depart="80.12">
        <route edges="7 1"/>
    </vehicle>
    <vehicle id="68" depart="80.12">
        <route edges="0 2"/>
    </vehicle>
    <vehicle id="69" depart="82.25">
        <route edges="7 1"/>
    </vehicle>
    <vehicle id="70" depart="82.25">
        <route edges="0 2"/>
    </vehicle>
    <vehicle id="71" depart="84.38">
        <route edges="7 1"/>
    </vehicle>
    <vehicle id="72" depart="84.38">
        <route edges="0 2"/>
    </vehicle>
    <vehicle id="73" depart="86.50">
        <route edges="7 1"/>
    </vehicle>
    <vehicle id="74" depart="86.50">
        <route edges="0 2"/>
    </vehicle>
    <vehicle id="75" depart="88.62">
        <route edges="7 1"/>
    </vehicle>
    <vehicle id="76" depart="88.62">
        <route edges="0 2"/>
    </vehicle>
    <vehicle id="77" depart="90.75">
        <route edges="7 1"/>
    </vehicle>
    <vehicle id="78" depart="90.75">
        <route edges="0 2"/>
    </vehicle>
    <vehicle id="79" depart="92.88">
        <route edges="7 1"/>
    </vehicle>
    <vehicle id="80" depart="92.88">
        <route edges="0 2"/>
    </vehicle>
    <vehicle id="81" depart="95.00">
        <route edges="7 1"/>
    </vehicle>
    <vehicle id="82" depart="95.00">
        <route edges="0 2"/>
    </vehicle>
    <vehicle id="83" depart="97.12">
        <route edges="7 1"/>
    </vehicle>
    <vehicle id="84" depart="97.12">
        <route edges="0 2"/>
    </vehicle>
    <vehicle id="85" depart="99.25">
        <route edges="7 1"/>
    </vehicle>
    <vehicle id="86" depart="99.25">
        <route edges="0 2"/>
    </vehicle>
    <vehicle id="87" depart="101.38">
        <route edges="7 1"/>
    </vehicle>
    <vehicle id="88" depart="101.38">
        <route edges="0 2"/>
    </vehicle>
    <vehicle id="89" depart="103.50">
        <route edges="7 1"/>
    </vehicle>
    <vehicle id="90" depart="103.50">
        <route edges="0 2"/>
    </vehicle>
    <vehicle id="91" depart="105.62">
        <route edges="7 1"/>
    </vehicle>
    <vehicle id="92" depart="105.62">
        <route edges="0 2"/>
    </vehicle>
    <vehicle id="93" depart="107.75">
        <route edges="7 1"/>
    </vehicle>
    <vehicle id="94" depart="107.75">
        <route edges="0 2"/>
    </vehicle>
    <vehicle id="95" depart="109.88">
        <route edges="7 1"/>
    </vehicle>
    <vehicle id="96" depart="109.88">
        <route edges="0 2"/>
    </vehicle>
    <vehicle id="97" depart="112.00">
        <route edges="7 1"/>
    </vehicle>
    <vehicle id="98" depart="112.00">
        <route edges="0 2"/>
    </vehicle>
    <vehicle id="99" depart="114.12">
        <route edges="7 1"/>
    </vehicle>
    <vehicle id="100" depart="114.12">
        <route edges="0 2"/>
    </vehicle>
    <vehicle id="101" depart="116.25">
        <route edges="7 1"/>
    </vehicle>
    <vehicle id="102" depart="116.25">
        <route edges="0 2"/>
    </vehicle>
    <vehicle id="103" depart="118.38">
        <route edges="7 1"/>
    </vehicle>
    <vehicle id="104" depart="118.38">
        <route edges="0 2"/>
    </vehicle>
    <vehicle id="105" depart="120.50">
        <route edges="7 1"/>
    </vehicle>
    <vehicle id="106" depart="120.50">
        <route edges="0 2"/>
    </vehicle>
    <vehicle id="107" depart="122.62">
        <route edges="7 1"/>
    </vehicle>
    <vehicle id="108" depart="122.62">
        <route edges="0 2"/>
    </vehicle>
    <vehicle id="109" depart="124.75">
        <route edges="7 1"/>
    </vehicle>
    <vehicle id="110" depart="124.75">
        <route edges="0 2"/>
    </vehicle>
    <vehicle id="111" depart="126.88">
        <route edges="7 1"/>
    </vehicle>
    <vehicle id="112" depart="126.88">
        <route edges="0 2"/>
    </vehicle>
    <vehicle id="113" depart="129.00">
        <route edges="7 1"/>
    </vehicle>
    <vehicle id="114" depart="129.00">
        <route edges="0 2"/>
    </vehicle>
    <vehicle id="115" depart="131.12">
        <route edges="7 1"/>
    </vehicle>
    <vehicle id="116" depart="131.12">
        <route edges="0 2"/>
    </vehicle>
    <vehicle id="117" depart="133.25">
        <route edges="7 1"/>
    </vehicle>
    <vehicle id="118" depart="133.25">
        <route edges="0 2"/>
    </vehicle>
    <vehicle id="119" depart="135.38">
        <route edges="7 1"/>
    </vehicle>
    <vehicle id="120" depart="135.38">
        <route edges="0 2"/>
    </vehicle>
    <vehicle id="121" depart="137.50">
        <route edges="7 1"/>
    </vehicle>
    <vehicle id="122" depart="137.50">
        <route edges="0 2"/>
    </vehicle>
    <vehicle id="123" depart="139.62">
        <route edges="7 1"/>
    </vehicle>
    <vehicle id="124" depart="139.62">
        <route edges="0 2"/>
    </vehicle>
    <vehicle id="125" depart="141.75">
        <route edges="7 1"/>
    </vehicle>
    <vehicle id="126" depart="141.75">
        <route edges="0 2"/>
    </vehicle>
    <vehicle id="127" depart="143.88">
        <route edges="7 1"/>
    </vehicle>
    <vehicle id="128" depart="143.88">
        <route edges="0 2"/>
    </vehicle>
    <vehicle id="129" depart="146.00">
        <route edges="7 1"/>
    </vehicle>
    <vehicle id="130" depart="146.00">
        <route edges="0 2"/>
    </vehicle>
    <vehicle id="131" depart="148.12">
        <route edges="7 1"/>
    </vehicle>
    <vehicle id="132" depart="148.12">
        <route edges="0 2"/>
    </vehicle>
    <vehicle id="133" depart="150.25">
        <route edges="7 1"/>
    </vehicle>
    <vehicle id="134" depart="150.25">
        <route edges="0 2"/>
    </vehicle>
    <vehicle id="135" depart="152.38">
        <route edges="7 1"/>
    </vehicle>
    <vehicle id="136" depart="152.38">
        <route edges="0 2"/>
    </vehicle>
    <vehicle id="137" depart="154.50">
        <route edges="7 1"/>
    </vehicle>
    <vehicle id="138" depart="154.50">
        <route edges="0 2"/>
    </vehicle>
    <vehicle id="139" depart="156.62">
        <route edges="7 1"/>
    </vehicle>
    <vehicle id="140" depart="156.62">
        <route edges="0 2"/>
    </vehicle>
    <vehicle id="141" depart="158.75">
        <route edges="7 1"/>
    </vehicle>
    <vehicle id="142" depart="158.75">
        <route edges="0 2"/>
    </vehicle>
    <vehicle id="143" depart="160.88">
        <route edges="7 1"/>
    </vehicle>
    <vehicle id="144" depart="160.88">
        <route edges="0 2"/>
    </vehicle>
    <vehicle id="145" depart="163.00">
        <route edges="7 1"/>
    </vehicle>
    <vehicle id="146" depart="163.00">
        <route edges="0 2"/>
    </vehicle>
    <vehicle id="147" depart="165.12">
        <route edges="7 1"/>
    </vehicle>
    <vehicle id="148" depart="165.12">
        <route edges="0 2"/>
    </vehicle>
    <vehicle id="149" depart="167.25">
        <route edges="7 1"/>
    </vehicle>
    <vehicle id="150" depart="167.25">
        <route edges="0 2"/>
    </vehicle>
    <vehicle id="151" depart="169.38">
        <route edges="7 1"/>
    </vehicle>
    <vehicle id="152" depart="169.38">
        <route edges="0 2"/>
    </vehicle>
    <vehicle id="153" depart="171.50">
        <route edges="7 1"/>
    </vehicle>
    <vehicle id="154" depart="171.50">
        <route edges="0 2"/>
    </vehicle>
    <vehicle id="155" depart="173.62">
        <route edges="7 1"/>
    </vehicle>
    <vehicle id="156" depart="173.62">
        <route edges="0 2"/>
    </vehicle>
    <vehicle id="157" depart="175.75">
        <route edges="7 1"/>
    </vehicle>
    <vehicle id="158" depart="175.75">
        <route edges="0 2"/>
    </vehicle>
    <vehicle id="159" depart="177.88">
        <route edges="7 1"/>
    </vehicle>
    <vehicle id="160" depart="177.88">
        <route edges="0 2"/>
    </vehicle>
</routes>
