<flows>
    <flow id="one" from="1" to="1" begin="10" end="180" number="80"/>
    <flow id="two" from="0" to="0" begin="10" end="180" number="80"/>

</flows>

