<?xml version="1.0" encoding="UTF-8"?>

<!-- generated on Fri Jul 25 14:08:49 2014 by SUMO duarouter Version 0.21.0
<?xml version="1.0" encoding="UTF-8"?>

<configuration xmlns:xsi="http://www.w3.org/2001/XMLSchema-instance" xsi:noNamespaceSchemaLocation="http://sumo-sim.org/xsd/duarouterConfiguration.xsd">

    <input>
        <net-file value="/home/wmatex/Projects/Agents/agentdrivecity/test/sumo_maps/../../../highway/src/main/resources/nets/CharlesSquare/CharlesSquare.net.xml"/>
        <trip-files value="/home/wmatex/Projects/Agents/agentdrivecity/test/sumo_maps/../../../highway/src/main/resources/nets/CharlesSquare/CharlesSquare.trips.xml"/>
    </input>

    <output>
        <output-file value="/home/wmatex/Projects/Agents/agentdrivecity/test/sumo_maps/../../../highway/src/main/resources/nets/CharlesSquare/CharlesSquare.rou.xml"/>
    </output>

    <processing>
        <ignore-errors value="true"/>
        <routing-algorithm value="astar"/>
    </processing>

</configuration>
-->

<routes xmlns:xsi="http://www.w3.org/2001/XMLSchema-instance" xsi:noNamespaceSchemaLocation="http://sumo-sim.org/xsd/routes_file.xsd">
    <vehicle id="0" depart="0.00">
        <route edges="4048702#2"/>
    </vehicle>
    <vehicle id="2" depart="0.20">
        <route edges="10157973#5"/>
    </vehicle>
    <vehicle id="3" depart="0.30">
        <route edges="4335616#1 26687630"/>
    </vehicle>
    <vehicle id="10" depart="1.00">
        <route edges="4048702#0 4048702#1 4048702#2 4048702#3 4048702#4 10157973#0 10157973#1 10157973#2 10157973#3 10157973#4 10157973#5 10157973#6 10157973#7 151874342 111770906#0 111770906#1 109248212"/>
    </vehicle>
    <vehicle id="11" depart="1.10">
        <route edges="27449046#0 27449046#1 111770908 127409922 111770910#0 111770910#1 111770910#2 10157973#5 10157973#6 10157973#7 151874342 111770906#0"/>
    </vehicle>
    <vehicle id="14" depart="1.40">
        <route edges="111770907#1 111770907#2 111770907#3 -4335616#3 -4335616#2"/>
    </vehicle>
    <vehicle id="15" depart="1.50">
        <route edges="26687519#0 26687519#1 109248223 109248222#0 109248222#1 268960950 111771388#0 111771388#1 111771388#2 111771388#3 -30764132 -4083702#5 -4083702#4 -4083702#3 -4083702#2 -4083702#1 -4083702#0 10157973#0 10157973#1 10157973#2 10157973#3 10157973#4 111770907#0 111770907#1 111770907#2 -26306946 127909420 30124111#0 30124111#1 30124111#2 26402554#2 4643188 4335616#2"/>
    </vehicle>
    <vehicle id="20" depart="2.00">
        <route edges="109248220#0 109248220#1 109248223 109248222#0 109248222#1 268960950 111771388#0 111771388#1 111771388#2 111771388#3 131812756#0 131812756#1 131812756#2"/>
    </vehicle>
    <vehicle id="21" depart="2.10">
        <route edges="4048702#2 4048702#3 4048702#4 10157973#0 10157973#1 10157973#2 10157973#3 10157973#4 111770907#0 111770907#1 111770907#2 -26306946 127909420 30124111#0 30124111#1 30124111#2 26402554#2 4643188 4335616#2"/>
    </vehicle>
    <vehicle id="23" depart="2.30">
        <route edges="4048702#0 4048702#1 4048702#2 4048702#3 4048702#4 10157973#0 10157973#1 10157973#2 10157973#3 10157973#4 10157973#5"/>
    </vehicle>
    <vehicle id="25" depart="2.50">
        <route edges="4048702#2 4048702#3 4048702#4 10157973#0 10157973#1 10157973#2 10157973#3 10157973#4 111770907#0 111770907#1 111770907#2 -26306946 127909420 30124111#0 30124111#1 30124111#2 26402554#2 4643188 4335616#2"/>
    </vehicle>
    <vehicle id="26" depart="2.60">
        <route edges="4048702#2 4048702#3 4048702#4 4083702#0 4083702#1 4083702#2 4083702#3 4083702#4 4083702#5 30764132 111771386#0 111771386#1"/>
    </vehicle>
    <vehicle id="27" depart="2.70">
        <route edges="10157973#6 10157973#7"/>
    </vehicle>
    <vehicle id="28" depart="2.80">
        <route edges="27449046#1 111770908 127409922 111770910#0 111770910#1 111770910#2"/>
    </vehicle>
    <vehicle id="30" depart="3.00">
        <route edges="4048702#0 4048702#1 4048702#2 4048702#3 4048702#4 10157973#0 10157973#1 10157973#2 10157973#3 10157973#4 10157973#5 10157973#6 10157973#7 151874342 111770906#0 111770906#1"/>
    </vehicle>
    <vehicle id="32" depart="3.20">
        <route edges="4048702#2"/>
    </vehicle>
    <vehicle id="33" depart="3.30">
        <route edges="4048702#2 4048702#3 4048702#4 10157973#0 10157973#1 10157973#2 10157973#3 10157973#4 10157973#5 10157973#6 10157973#7 151874342 111770906#0 111770906#1 109248212"/>
    </vehicle>
    <vehicle id="34" depart="3.40">
        <route edges="4048702#0 4048702#1 4048702#2 4048702#3 4048702#4 10157973#0 10157973#1 10157973#2 10157973#3 10157973#4 10157973#5 10157973#6 10157973#7 151874342"/>
    </vehicle>
    <vehicle id="37" depart="3.70">
        <route edges="109248220#1 109248223"/>
    </vehicle>
    <vehicle id="38" depart="3.80">
        <route edges="111771388#2 111771388#3 131812756#0 131812756#1 131812756#2 131812756#3"/>
    </vehicle>
    <vehicle id="40" depart="4.00">
        <route edges="10157973#5 10157973#6 10157973#7 246500334#0 246500334#1 268960949 111771391#0"/>
    </vehicle>
    <vehicle id="41" depart="4.10">
        <route edges="151874342 111770906#0"/>
    </vehicle>
    <vehicle id="45" depart="4.50">
        <route edges="111771386#1 111771386#2"/>
    </vehicle>
    <vehicle id="47" depart="4.70">
        <route edges="4048702#2 4048702#3 4048702#4 10157973#0 10157973#1 10157973#2 10157973#3 10157973#4 10157973#5 10157973#6"/>
    </vehicle>
    <vehicle id="48" depart="4.80">
        <route edges="4641277#2 4641277#3 111770910#0 111770910#1 111770910#2 111770907#0 111770907#1 111770907#2 111770907#3"/>
    </vehicle>
    <vehicle id="50" depart="5.00">
        <route edges="4048702#2 4048702#3 4048702#4 10157973#0 10157973#1 10157973#2 10157973#3 10157973#4 111770907#0 111770907#1 111770907#2 111770907#3 -4335616#3 -4335616#2 -4643188 -26402554#2"/>
    </vehicle>
    <vehicle id="55" depart="5.50">
        <route edges="10157973#5 10157973#6 10157973#7 246500334#0 246500334#1 268960949 111771391#0"/>
    </vehicle>
    <vehicle id="57" depart="5.70">
        <route edges="26687519#0 26687519#1 109248223 109248222#0 109248222#1 268960950 111771388#0 111771388#1 111771388#2 111771388#3 -30764132 -4083702#5"/>
    </vehicle>
    <vehicle id="58" depart="5.80">
        <route edges="109248223 109248222#0 109248222#1 268960950 111771388#0 111771388#1 111771388#2 111771388#3 -30764132 -4083702#5 -4083702#4 -4083702#3 -4083702#2 -4083702#1 -4083702#0 10157973#0 10157973#1 10157973#2 10157973#3 10157973#4 111770907#0 111770907#1 111770907#2 111770907#3 -4335616#3 -4335616#2 -4335616#1"/>
    </vehicle>
    <vehicle id="63" depart="6.30">
        <route edges="10157973#0 10157973#1 10157973#2 10157973#3 10157973#4 10157973#5 10157973#6 10157973#7 151874342 111770906#0"/>
    </vehicle>
    <vehicle id="64" depart="6.40">
        <route edges="4048702#1 4048702#2 4048702#3 4048702#4 10157973#0 10157973#1 10157973#2 10157973#3 10157973#4 10157973#5 10157973#6 10157973#7 151874342 111770906#0"/>
    </vehicle>
    <vehicle id="66" depart="6.60">
        <route edges="4048702#0 4048702#1 4048702#2 4048702#3 4048702#4 10157973#0 10157973#1 10157973#2 10157973#3 10157973#4 10157973#5 10157973#6 10157973#7 151874342 111770906#0 111770906#1 109248212"/>
    </vehicle>
    <!--
    <vehicle id="69" depart="6.90">
        <route edges="10157973#1 10157973#2 10157973#3 10157973#4 10157973#5"/>
    </vehicle>
    <vehicle id="71" depart="7.10">
        <route edges="109248223 109248222#0 109248222#1 268960950 111771388#0 111771388#1 111771388#2 111771388#3 -30764132 -4083702#5 -4083702#4 -4083702#3 -4083702#2 -4083702#1 -4083702#0 10157973#0 10157973#1 10157973#2 10157973#3 10157973#4 10157973#5 10157973#6"/>
    </vehicle>
    <vehicle id="72" depart="7.20">
        <route edges="4048702#1 4048702#2 4048702#3 4048702#4 10157973#0 10157973#1 10157973#2 10157973#3 10157973#4 10157973#5 10157973#6 10157973#7 151874342 111770906#0"/>
    </vehicle>
    <vehicle id="73" depart="7.30">
        <route edges="-4083702#2 -4083702#1 -4083702#0 10157973#0 10157973#1 10157973#2 10157973#3 10157973#4 10157973#5 10157973#6 10157973#7 151874342 111770906#0"/>
    </vehicle>
    <vehicle id="74" depart="7.40">
        <route edges="109248223 109248222#0 109248222#1 268960950 111771388#0 111771388#1 111771388#2 111771388#3 -30764132 -4083702#5 -4083702#4 -4083702#3 -4083702#2 -4083702#1 -4083702#0 10157973#0 10157973#1 10157973#2 10157973#3 10157973#4 111770907#0 111770907#1 111770907#2 111770907#3 27449046#0 27449046#1 111770908"/>
    </vehicle>
    <vehicle id="76" depart="7.60">
        <route edges="4048702#0 4048702#1 4048702#2 4048702#3 4048702#4 10157973#0 10157973#1 10157973#2 10157973#3 10157973#4 111770907#0 111770907#1 111770907#2 -26306946 127909420 30124111#0 30124111#1 30124111#2 26402554#2 4643188"/>
    </vehicle>
    <vehicle id="78" depart="7.80">
        <route edges="4083702#3 4083702#4 4083702#5 30764132 111771386#0 111771386#1"/>
    </vehicle>
    <vehicle id="80" depart="8.00">
        <route edges="111771386#1 111771386#2"/>
    </vehicle>
    <vehicle id="81" depart="8.10">
        <route edges="4048702#2 4048702#3 4048702#4 4083702#0 4083702#1 4083702#2 4083702#3 4083702#4 4083702#5 30764132 131812756#0 131812756#1 131812756#2"/>
    </vehicle>
    <vehicle id="83" depart="8.30">
        <route edges="-4083702#2 -4083702#1 -4083702#0 10157973#0 10157973#1 10157973#2 10157973#3 10157973#4 111770907#0 111770907#1 111770907#2 -26306946 127909420 30124111#0 30124111#1 30124111#2 -26402554#1 -26402554#0"/>
    </vehicle>
    <vehicle id="84" depart="8.40">
        <route edges="4048702#0 4048702#1 4048702#2 4048702#3 4048702#4 4083702#0 4083702#1 4083702#2 4083702#3 4083702#4 4083702#5 30764132 111771386#0"/>
    </vehicle>
    <vehicle id="88" depart="8.80">
        <route edges="4048702#2 4048702#3 4048702#4 4083702#0 4083702#1 4083702#2 4083702#3 4083702#4 4083702#5 30764132 111771386#0 111771386#1 111771386#2"/>
    </vehicle>
    <vehicle id="95" depart="9.50">
        <route edges="-109248212 109248220#0 109248220#1 109248223 109248222#0 109248222#1 268960950 111771388#0 111771388#1 111771388#2 111771388#3 -30764132 -4083702#5 -4083702#4 -4083702#3 -4083702#2 -4083702#1 -4083702#0 10157973#0 10157973#1 10157973#2 10157973#3 10157973#4 111770907#0 111770907#1 111770907#2 -26306946 127909420 30124111#0 30124111#1 30124111#2 -26402554#1 -26402554#0"/>
    </vehicle>
    <vehicle id="96" depart="9.60">
        <route edges="26687519#0 26687519#1 109248223 109248222#0 109248222#1 268960950 111771388#0 111771388#1 111771388#2 111771388#3 -30764132 -4083702#5 -4083702#4 -4083702#3 -4083702#2 -4083702#1 -4083702#0 4690286#0 4690286#1 4690286#2 4690286#3 4690286#4"/>
    </vehicle>
    <vehicle id="98" depart="9.80">
        <route edges="42264733 4335616#3 27449046#0 27449046#1 111770908 127409922 111770910#0 111770910#1 111770910#2 10157973#5 10157973#6 10157973#7 246500334#0 246500334#1 268960949 111771391#0 111771391#1"/>
    </vehicle>

    <vehicle id="100" depart="10.00">
        <route edges="111771388#1 111771388#2 111771388#3 -30764132 -4083702#5 -4083702#4 -4083702#3 -4083702#2 -4083702#1 -4083702#0 10157973#0 10157973#1 10157973#2 10157973#3"/>
    </vehicle>
    <vehicle id="102" depart="10.20">
        <route edges="-4083702#4 -4083702#3 -4083702#2 -4083702#1 -4083702#0 10157973#0 10157973#1 10157973#2 10157973#3 10157973#4 10157973#5 10157973#6 10157973#7 246500334#0 246500334#1 268960949 111771391#0 111771391#1"/>
    </vehicle>
    <vehicle id="103" depart="10.30">
        <route edges="4048702#1 4048702#2 4048702#3 4048702#4 10157973#0 10157973#1 10157973#2 10157973#3 10157973#4 111770907#0 111770907#1"/>
    </vehicle>
    <vehicle id="105" depart="10.50">
        <route edges="4048702#2 4048702#3 4048702#4 10157973#0 10157973#1 10157973#2 10157973#3 10157973#4 10157973#5 10157973#6 10157973#7 246500334#0 246500334#1 268960949 111771391#0 111771391#1"/>
    </vehicle>
    <vehicle id="107" depart="10.70">
        <route edges="111770908 127409922 111770910#0 111770910#1 111770910#2 111770907#0 111770907#1 111770907#2 111770907#3 -4335616#3 -4335616#2 26687630"/>
    </vehicle>
    <vehicle id="108" depart="10.80">
        <route edges="109248222#0 109248222#1 268960950 111771388#0 111771388#1 111771388#2 111771388#3 111771386#0 111771386#1 111771386#2"/>
    </vehicle>
    <vehicle id="109" depart="10.90">
        <route edges="4048702#2 4048702#3 4048702#4 10157973#0 10157973#1 10157973#2 10157973#3 10157973#4 111770907#0 111770907#1 111770907#2 -26306946"/>
    </vehicle>
    <vehicle id="111" depart="11.10">
        <route edges="111770907#2 111770907#3 27449046#0 27449046#1 111770908 127409922 111770910#0 111770910#1 111770910#2 10157973#5"/>
    </vehicle>
    <vehicle id="112" depart="11.20">
        <route edges="4048702#0 4048702#1 4048702#2 4048702#3 4048702#4 4690286#0"/>
    </vehicle>
    <vehicle id="114" depart="11.40">
        <route edges="-131812756#2 -131812756#1 -131812756#0 111771386#0 111771386#1"/>
    </vehicle>
    <vehicle id="115" depart="11.50">
        <route edges="109248223 109248222#0 109248222#1 268960950 111771388#0 111771388#1 111771388#2 111771388#3 -30764132 -4083702#5 -4083702#4 -4083702#3 -4083702#2 -4083702#1 -4083702#0 10157973#0 10157973#1 10157973#2 10157973#3 10157973#4 10157973#5"/>
    </vehicle>
    <vehicle id="116" depart="11.60">
        <route edges="111771388#1 111771388#2 111771388#3 -30764132 -4083702#5 -4083702#4 -4083702#3 -4083702#2 -4083702#1 -4083702#0 10157973#0 10157973#1 10157973#2 10157973#3 10157973#4 111770907#0 111770907#1 111770907#2 111770907#3 -4335616#3 -4335616#2 -4643188 27247661#0 27247661#1"/>
    </vehicle>
    <vehicle id="117" depart="11.70">
        <route edges="4048702#2 4048702#3 4048702#4 10157973#0 10157973#1 10157973#2 10157973#3 10157973#4 111770907#0 111770907#1 111770907#2 -26306946 127909420 30124111#0 30124111#1 30124111#2 -26402554#1 -26402554#0"/>
    </vehicle>
    <vehicle id="119" depart="11.90">
        <route edges="4048702#1 4048702#2 4048702#3 4048702#4 10157973#0 10157973#1 10157973#2 10157973#3 10157973#4 111770907#0 111770907#1 111770907#2 111770907#3 27449046#0"/>
    </vehicle>
    <vehicle id="120" depart="12.00">
        <route edges="111770907#1 111770907#2 111770907#3 27449046#0 27449046#1 111770908"/>
    </vehicle>
    <vehicle id="121" depart="12.10">
        <route edges="27449046#0 27449046#1 111770908 127409922 111770910#0 111770910#1 111770910#2 10157973#5 10157973#6 10157973#7 246500334#0 246500334#1 268960949 111771391#0"/>
    </vehicle>
    <vehicle id="122" depart="12.20">
        <route edges="4048702#2 4048702#3 4048702#4 10157973#0 10157973#1"/>
    </vehicle>
    <vehicle id="124" depart="12.40">
        <route edges="111770908 127409922 111770910#0 111770910#1 111770910#2 10157973#5 10157973#6 10157973#7 151874342 111770906#0"/>
    </vehicle>
    <vehicle id="127" depart="12.70">
        <route edges="4048702#2 4048702#3 4048702#4 10157973#0 10157973#1 10157973#2 10157973#3 10157973#4 111770907#0 111770907#1 111770907#2 111770907#3 -4335616#3 -4335616#2 26687630"/>
    </vehicle>
    <vehicle id="129" depart="12.90">
        <route edges="-26306946 4415011 111770907#2 111770907#3 27449046#0 27449046#1"/>
    </vehicle>
    <vehicle id="130" depart="13.00">
        <route edges="4048702#4 10157973#0 10157973#1 10157973#2 10157973#3 10157973#4 111770907#0 111770907#1"/>
    </vehicle>
    <vehicle id="132" depart="13.20">
        <route edges="4335616#2 4335616#3 27449046#0 27449046#1 111770908 127409922 111770910#0 111770910#1 111770910#2 10157973#5 10157973#6 10157973#7 151874342 111770906#0"/>
    </vehicle>
    <vehicle id="133" depart="13.30">
        <route edges="4048702#0 4048702#1 4048702#2 4048702#3 4048702#4 10157973#0 10157973#1 10157973#2 10157973#3 10157973#4 10157973#5 10157973#6 10157973#7 246500334#0 246500334#1 268960949 111771391#0"/>
    </vehicle>
    <vehicle id="139" depart="13.90">
        <route edges="10157973#6"/>
    </vehicle>
    <vehicle id="145" depart="14.50">
        <route edges="109248223"/>
    </vehicle>
    <vehicle id="147" depart="14.70">
        <route edges="109248220#0 109248220#1 109248223"/>
    </vehicle>
    <vehicle id="151" depart="15.10">
        <route edges="4048702#0 4048702#1 4048702#2 4048702#3 4048702#4 10157973#0 10157973#1 10157973#2 10157973#3 10157973#4 10157973#5 10157973#6"/>
    </vehicle>
    <vehicle id="158" depart="15.80">
        <route edges="4048702#2 4048702#3 4048702#4 4083702#0 4083702#1 4083702#2"/>
    </vehicle>
    <vehicle id="159" depart="15.90">
        <route edges="10157973#1 10157973#2 10157973#3 10157973#4 111770907#0 111770907#1 111770907#2 -26306946 127909420 30124111#0"/>
    </vehicle>
    <vehicle id="161" depart="16.10">
        <route edges="-4690286#4 -4690286#3 -4690286#2 -4690286#1 -4690286#0 10157973#0 10157973#1 10157973#2 10157973#3 10157973#4 111770907#0 111770907#1 111770907#2 111770907#3 27449046#0 27449046#1"/>
    </vehicle>
    <vehicle id="163" depart="16.30">
        <route edges="4048702#0 4048702#1 4048702#2 4048702#3 4048702#4 10157973#0 10157973#1"/>
    </vehicle>
    <vehicle id="164" depart="16.40">
        <route edges="-131812756#2 -131812756#1 -131812756#0 -30764132 -4083702#5 -4083702#4 -4083702#3 -4083702#2 -4083702#1 -4083702#0 10157973#0 10157973#1 10157973#2 10157973#3 10157973#4 10157973#5 10157973#6 10157973#7 246500334#0 246500334#1 268960949 111771391#0"/>
    </vehicle>
    <vehicle id="171" depart="17.10">
        <route edges="4048702#2 4048702#3 4048702#4 10157973#0 10157973#1 10157973#2 10157973#3 10157973#4 10157973#5 10157973#6 10157973#7 151874342 111770906#0"/>
    </vehicle>
    <vehicle id="173" depart="17.30">
        <route edges="109248223 109248222#0 109248222#1 268960950 111771388#0 111771388#1 111771388#2 111771388#3 -30764132 -4083702#5 -4083702#4 -4083702#3 -4083702#2 -4083702#1 -4083702#0 4690286#0 4690286#1 4690286#2 4641277#0 4641277#1"/>
    </vehicle>
    <vehicle id="179" depart="17.90">
        <route edges="10157973#1 10157973#2 10157973#3"/>
    </vehicle>
    <vehicle id="180" depart="18.00">
        <route edges="-4083702#3 -4083702#2 -4083702#1 -4083702#0 10157973#0 10157973#1 10157973#2 10157973#3 10157973#4 10157973#5 10157973#6 10157973#7 246500334#0 246500334#1 268960949 111771391#0 111771391#1"/>
    </vehicle>
    <vehicle id="183" depart="18.30">
        <route edges="-4083702#2 -4083702#1 -4083702#0 10157973#0 10157973#1 10157973#2 10157973#3 10157973#4 10157973#5 10157973#6 10157973#7 246500334#0 246500334#1 268960949 111771391#0 111771391#1"/>
    </vehicle>
    <vehicle id="185" depart="18.50">
        <route edges="4048702#0 4048702#1"/>
    </vehicle>
    <vehicle id="187" depart="18.70">
        <route edges="-4690286#4 -4690286#3 -4690286#2 -4690286#1 -4690286#0 10157973#0 10157973#1 10157973#2 10157973#3 10157973#4 111770907#0 111770907#1 111770907#2 111770907#3 -4335616#3 -4335616#2"/>
    </vehicle>
    <vehicle id="192" depart="19.20">
        <route edges="4048702#2 4048702#3 4048702#4 10157973#0 10157973#1 10157973#2 10157973#3 10157973#4 10157973#5"/>
    </vehicle>
    <vehicle id="195" depart="19.50">
        <route edges="4083702#3 4083702#4 4083702#5 30764132 111771386#0 111771386#1"/>
    </vehicle>
    <vehicle id="196" depart="19.60">
        <route edges="-131812756#2 -131812756#1 -131812756#0 -30764132 -4083702#5 -4083702#4 -4083702#3 -4083702#2 -4083702#1 -4083702#0 10157973#0 10157973#1 10157973#2 10157973#3 10157973#4 10157973#5 10157973#6"/>
    </vehicle>
    <vehicle id="197" depart="19.70">
        <route edges="-4690286#4 -4690286#3 -4690286#2 -4690286#1 -4690286#0 4083702#0 4083702#1 4083702#2 4083702#3 4083702#4 4083702#5 30764132 111771386#0 111771386#1"/>
    </vehicle>
    <vehicle id="199" depart="19.90">
        <route edges="4048702#0 4048702#1 4048702#2 4048702#3 4048702#4 10157973#0 10157973#1 10157973#2 10157973#3 10157973#4 111770907#0 111770907#1 111770907#2 111770907#3 -4335616#3"/>
    </vehicle>
    <vehicle id="200" depart="20.00">
        <route edges="-26306946 4415011 111770907#2 111770907#3 27449046#0 27449046#1 111770908 127409922 111770910#0 111770910#1 111770910#2 10157973#5 10157973#6 10157973#7 246500334#0 246500334#1 268960949 111771391#0 111771391#1"/>
    </vehicle>
    <vehicle id="201" depart="20.10">
        <route edges="4048702#4 10157973#0 10157973#1 10157973#2 10157973#3 10157973#4 10157973#5 10157973#6 10157973#7 151874342 111770906#0"/>
    </vehicle>
    <vehicle id="202" depart="20.20">
        <route edges="4048702#4 4690286#0 4690286#1 4690286#2 4690286#3 4690286#4"/>
    </vehicle>
    <vehicle id="204" depart="20.40">
        <route edges="10157973#7 246500334#0 246500334#1 268960949 111771391#0 111771391#1"/>
    </vehicle>
    <vehicle id="205" depart="20.50">
        <route edges="-4690286#4 -4690286#3 -4690286#2 -4690286#1 -4690286#0 10157973#0 10157973#1 10157973#2 10157973#3 10157973#4 111770907#0 111770907#1 111770907#2 111770907#3 -4335616#3 -4335616#2 -4335616#1"/>
    </vehicle>
    <vehicle id="214" depart="21.40">
        <route edges="4643188 4335616#2 4335616#3 27449046#0 27449046#1 111770908 127409922 111770910#0 111770910#1 111770910#2 10157973#5 10157973#6 10157973#7 246500334#0 246500334#1 268960949 111771391#0 111771391#1"/>
    </vehicle>
    <vehicle id="215" depart="21.50">
        <route edges="4048702#4 4083702#0 4083702#1 4083702#2 4083702#3 4083702#4 4083702#5 30764132 111771386#0 111771386#1"/>
    </vehicle>
    <vehicle id="217" depart="21.70">
        <route edges="10157973#0 10157973#1 10157973#2 10157973#3 10157973#4 111770907#0 111770907#1 111770907#2 111770907#3 -4335616#3 -4335616#2 26687630"/>
    </vehicle>
    <vehicle id="218" depart="21.80">
        <route edges="4048702#2 4048702#3 4048702#4 4083702#0 4083702#1 4083702#2 4083702#3 4083702#4 4083702#5 30764132 111771386#0 111771386#1 111771386#2"/>
    </vehicle>
    <vehicle id="219" depart="21.90">
        <route edges="111771388#1 111771388#2 111771388#3 -30764132 -4083702#5 -4083702#4 -4083702#3 -4083702#2 -4083702#1 -4083702#0 10157973#0 10157973#1 10157973#2 10157973#3 10157973#4 111770907#0 111770907#1 111770907#2 111770907#3 -4335616#3 -4335616#2 -4335616#1 -4335616#0"/>
    </vehicle>
    <vehicle id="224" depart="22.40">
        <route edges="4048702#2 4048702#3 4048702#4 10157973#0 10157973#1 10157973#2 10157973#3 10157973#4 111770907#0 111770907#1 111770907#2 111770907#3 27449046#0 27449046#1 111770908 127409922"/>
    </vehicle>
    <vehicle id="229" depart="22.90">
        <route edges="4335616#1 -4643188"/>
    </vehicle>
    <vehicle id="230" depart="23.00">
        <route edges="4048702#0 4048702#1 4048702#2"/>
    </vehicle>
    <vehicle id="231" depart="23.10">
        <route edges="-4083702#0 10157973#0 10157973#1 10157973#2 10157973#3 10157973#4 111770907#0 111770907#1"/>
    </vehicle>
    <vehicle id="232" depart="23.20">
        <route edges="4048702#2 4048702#3 4048702#4 10157973#0 10157973#1 10157973#2 10157973#3 10157973#4 111770907#0 111770907#1 111770907#2 111770907#3 -4335616#3 -4335616#2 -4643188 27247661#0 27247661#1"/>
    </vehicle>
    <vehicle id="234" depart="23.40">
        <route edges="26687519#0 26687519#1 109248223 109248222#0 109248222#1 268960950 111771388#0 111771388#1 111771388#2 111771388#3 -30764132 -4083702#5 -4083702#4 -4083702#3 -4083702#2 -4083702#1 -4083702#0 10157973#0 10157973#1 10157973#2 10157973#3 10157973#4 111770907#0 111770907#1 111770907#2 111770907#3 -4335616#3 -4335616#2 26687630"/>
    </vehicle>
    <vehicle id="235" depart="23.50">
        <route edges="4048702#0 4048702#1 4048702#2 4048702#3 4048702#4 10157973#0 10157973#1 10157973#2 10157973#3 10157973#4 111770907#0 111770907#1 111770907#2 111770907#3 -4335616#3 -4335616#2 -4643188"/>
    </vehicle>
    <vehicle id="241" depart="24.10">
        <route edges="4048702#0 4048702#1 4048702#2 4048702#3 4048702#4 10157973#0 10157973#1 10157973#2 10157973#3 10157973#4 111770907#0 111770907#1 111770907#2 -26306946"/>
    </vehicle>
    <vehicle id="242" depart="24.20">
        <route edges="-4690286#4 -4690286#3 -4690286#2 -4690286#1 -4690286#0 10157973#0 10157973#1 10157973#2 10157973#3 10157973#4 111770907#0 111770907#1 111770907#2 111770907#3 27449046#0 27449046#1"/>
    </vehicle>
    <vehicle id="248" depart="24.80">
        <route edges="-4690286#4 -4690286#3 -4690286#2 -4690286#1 -4690286#0 10157973#0 10157973#1 10157973#2 10157973#3 10157973#4 10157973#5 10157973#6 10157973#7 246500334#0 246500334#1 268960949 111771391#0 111771391#1"/>
    </vehicle>
    <vehicle id="252" depart="25.20">
        <route edges="109248222#1 268960950 111771388#0 111771388#1 111771388#2 111771388#3 131812756#0 131812756#1 131812756#2"/>
    </vehicle>
    <vehicle id="253" depart="25.30">
        <route edges="111770907#1 111770907#2 -26306946 127909420 30124111#0 30124111#1 30124111#2 26402554#2 4643188 4335616#2"/>
    </vehicle>
    <vehicle id="257" depart="25.70">
        <route edges="4641277#0 4641277#1 4641277#2 4641277#3 111770910#0 111770910#1 111770910#2 111770907#0 111770907#1 111770907#2 -26306946 127909420 30124111#0 30124111#1"/>
    </vehicle>
    <vehicle id="258" depart="25.80">
        <route edges="-109248212 109248220#0 109248220#1 109248223 109248222#0 109248222#1 268960950 111771388#0 111771388#1 111771388#2 111771388#3 -30764132 -4083702#5 -4083702#4 -4083702#3 -4083702#2 -4083702#1 -4083702#0 4690286#0 4690286#1 4690286#2 4690286#3 4690286#4"/>
    </vehicle>
    <vehicle id="259" depart="25.90">
        <route edges="4048702#2 4048702#3 4048702#4 4083702#0 4083702#1 4083702#2 4083702#3 4083702#4 4083702#5 30764132 111771386#0 111771386#1 111771386#2"/>
    </vehicle>
    <vehicle id="261" depart="26.10">
        <route edges="4048702#2 4048702#3 4048702#4 10157973#0 10157973#1 10157973#2 10157973#3 10157973#4 111770907#0 111770907#1 111770907#2 111770907#3 -4335616#3 -4335616#2 -4643188 27247661#0 27247661#1 26687459#0"/>
    </vehicle>
    <vehicle id="264" depart="26.40">
        <route edges="26687519#0 26687519#1 109248223 109248222#0 109248222#1 268960950 111771388#0 111771388#1 111771388#2 111771388#3 111771386#0 111771386#1 111771386#2"/>
    </vehicle>
    <vehicle id="267" depart="26.70">
        <route edges="109248220#0 109248220#1 109248223 109248222#0 109248222#1 268960950 111771388#0 111771388#1 111771388#2 111771388#3 -30764132 -4083702#5 -4083702#4 -4083702#3 -4083702#2 -4083702#1 -4083702#0 10157973#0 10157973#1 10157973#2 10157973#3 10157973#4 10157973#5 10157973#6 10157973#7 151874342 111770906#0"/>
    </vehicle>
    <vehicle id="269" depart="26.90">
        <route edges="-109248212 109248220#0 109248220#1 109248223 109248222#0 109248222#1 268960950 111771388#0 111771388#1 111771388#2 111771388#3 -30764132 -4083702#5 -4083702#4 -4083702#3 -4083702#2 -4083702#1 -4083702#0 10157973#0 10157973#1 10157973#2 10157973#3 10157973#4 10157973#5 10157973#6 10157973#7 246500334#0 246500334#1 268960949"/>
    </vehicle>
    <vehicle id="271" depart="27.10">
        <route edges="4048702#2"/>
    </vehicle>
    <vehicle id="276" depart="27.60">
        <route edges="4641277#1 4641277#2 4641277#3 111770910#0 111770910#1 111770910#2 10157973#5 10157973#6 10157973#7 151874342 111770906#0 111770906#1 109248212"/>
    </vehicle>
    <vehicle id="278" depart="27.80">
        <route edges="109248220#0 109248220#1 109248223"/>
    </vehicle>
    <vehicle id="279" depart="27.90">
        <route edges="4335616#2 4335616#3 27449046#0 27449046#1 111770908 127409922 111770910#0 111770910#1 111770910#2 10157973#5 10157973#6 10157973#7 151874342 111770906#0"/>
    </vehicle>
    <vehicle id="283" depart="28.30">
        <route edges="111770907#3 27449046#0 27449046#1 111770908 127409922 111770910#0 111770910#1 111770910#2 111770907#0 111770907#1 111770907#2 -26306946 127909420 30124111#0 30124111#1 30124111#2 26402554#2 4643188 4335616#2"/>
    </vehicle>
    <vehicle id="284" depart="28.40">
        <route edges="109248222#0 109248222#1 268960950 111771388#0 111771388#1 111771388#2 111771388#3 111771386#0 111771386#1"/>
    </vehicle>
    <vehicle id="288" depart="28.80">
        <route edges="111770907#1 111770907#2 111770907#3 27449046#0 27449046#1 111770908 127409922 111770910#0 111770910#1 111770910#2 10157973#5 10157973#6 10157973#7 151874342 111770906#0"/>
    </vehicle>
    <vehicle id="292" depart="29.20">
        <route edges="-131812756#2 -131812756#1 -131812756#0 111771386#0 111771386#1"/>
    </vehicle>
    <vehicle id="293" depart="29.30">
        <route edges="4048702#0 4048702#1 4048702#2 4048702#3 4048702#4 4083702#0 4083702#1 4083702#2 4083702#3 4083702#4 4083702#5 30764132 131812756#0 131812756#1 131812756#2"/>
    </vehicle>
    <vehicle id="297" depart="29.70">
        <route edges="-109248212 109248220#0 109248220#1 109248223 109248222#0"/>
    </vehicle>
    <vehicle id="299" depart="29.90">
        <route edges="4048702#2 4048702#3 4048702#4 4690286#0 4690286#1 4690286#2 4641277#0 4641277#1"/>
    </vehicle>
    <vehicle id="301" depart="30.10">
        <route edges="-131812756#2 -131812756#1 -131812756#0 -30764132 -4083702#5 -4083702#4 -4083702#3 -4083702#2 -4083702#1 -4083702#0 10157973#0 10157973#1 10157973#2 10157973#3 10157973#4 111770907#0 111770907#1 111770907#2 -26306946 127909420"/>
    </vehicle>
    <vehicle id="304" depart="30.40">
        <route edges="109248220#0 109248220#1 109248223 109248222#0 109248222#1 268960950 111771388#0 111771388#1 111771388#2 111771388#3 -30764132 -4083702#5 -4083702#4 -4083702#3 -4083702#2 -4083702#1 -4083702#0 10157973#0 10157973#1 10157973#2 10157973#3 10157973#4 10157973#5 10157973#6 10157973#7 246500334#0 246500334#1"/>
    </vehicle>
    <vehicle id="305" depart="30.50">