<?xml version="1.0" encoding="UTF-8"?>

<!-- generated on Fri Jul 25 14:08:49 2014 by SUMO netconvert Version 0.21.0
<?xml version="1.0" encoding="UTF-8"?>

<configuration xmlns:xsi="http://www.w3.org/2001/XMLSchema-instance" xsi:noNamespaceSchemaLocation="http://sumo-sim.org/xsd/netconvertConfiguration.xsd">

    <input>
        <osm-files value="/home/wmatex/Projects/Agents/agentdrivecity/test/sumo_maps/../../../highway/src/main/resources/nets/CharlesSquare/CharlesSquare.osm"/>
    </input>

    <output>
        <output-file value="/home/wmatex/Projects/Agents/agentdrivecity/test/sumo_maps/../../../highway/src/main/resources/nets/CharlesSquare/CharlesSquare.net.xml"/>
    </output>

    <projection>
        <proj value="+proj=utm +ellps=bessel +units=m"/>
    </projection>

    <tls_building>
        <tls.join value="true"/>
    </tls_building>

    <edge_removal>
        <remove-edges.by-vclass value="hov,taxi,bus,delivery,transport,lightrail,cityrail,rail_slow,rail_fast,motorcycle,bicycle,pedestrian"/>
    </edge_removal>

    <processing>
        <no-internal-links value="true"/>
        <no-turnarounds value="true"/>
    </processing>

</configuration>
-->

<net version="0.13" xmlns:xsi="http://www.w3.org/2001/XMLSchema-instance" xsi:noNamespaceSchemaLocation="http://sumo-sim.org/xsd/net_file.xsd">

    <location netOffset="-1742231.43,-5693180.26" convBoundary="0.00,0.00,1060.62,638.98" origBoundary="14.403532,50.059353,14.560303,50.110847" projParameter="+proj=utm +ellps=bessel +units=m"/>

    <edge id="-109248212" from="21456616" to="25936560" priority="9" type="highway.primary">
        <lane id="-109248212_0" index="0" speed="27.78" length="76.59" shape="132.20,161.97 201.44,186.37"/>
        <lane id="-109248212_1" index="1" speed="27.78" length="76.59" shape="131.11,165.09 200.34,189.48"/>
    </edge>
    <edge id="-127909420" from="300118850" to="25656676" priority="4" type="highway.residential">
        <lane id="-127909420_0" index="0" speed="13.89" length="49.86" shape="221.04,376.60 249.07,413.92"/>
    </edge>
    <edge id="-131812756#0" from="1031068869" to="1272593674" priority="4" type="highway.residential">
        <lane id="-131812756#0_0" index="0" speed="13.89" length="10.47" shape="495.60,242.01 495.93,246.93"/>
    </edge>
    <edge id="-131812756#1" from="1826645300" to="1031068869" priority="4" type="highway.residential">
        <lane id="-131812756#1_0" index="0" speed="13.89" length="2.62" shape="495.69,239.39 495.60,241.84"/>
    </edge>
    <edge id="-131812756#2" from="1165956849" to="1826645300" priority="4" type="highway.residential" shape="500.64,9.51 496.23,162.94 494.04,239.33">
        <lane id="-131812756#2_0" index="0" speed="13.89" length="229.91" shape="502.28,9.79 497.88,162.99 495.69,239.38"/>
    </edge>
    <edge id="-131812756#3" from="21672823" to="1165956849" priority="4" type="highway.residential">
        <lane id="-131812756#3_0" index="0" speed="13.89" length="9.65" shape="503.89,0.28 502.30,9.56"/>
    </edge>
    <edge id="-25908958" from="282628931" to="282628928" priority="4" type="highway.residential" shape="525.51,366.11 602.72,379.36 612.14,380.98 614.64,365.26 628.59,367.13 727.13,380.38 732.38,380.48 738.82,380.59">
        <lane id="-25908958_0" index="0" speed="13.89" length="229.01" shape="525.79,364.48 603.00,377.74 610.77,379.07 613.26,363.41 628.81,365.50 727.35,378.74 732.41,378.83 738.85,378.94"/>
    </edge>
    <edge id="-26306946" from="25656677" to="25656676" priority="4" type="highway.residential" shape="258.71,434.60 254.94,427.75 248.80,416.31">
        <lane id="-26306946_0" index="0" speed="13.89" length="20.80" shape="255.96,433.02 253.50,428.54 249.45,421.00"/>
    </edge>
    <edge id="-26402554#0" from="330632506" to="289251591" priority="4" type="highway.residential">
        <lane id="-26402554#0_0" index="0" speed="13.89" length="55.61" shape="176.32,308.66 202.50,259.92"/>
    </edge>
    <edge id="-26402554#1" from="1014526255" to="330632506" priority="4" type="highway.residential">
        <lane id="-26402554#1_0" index="0" speed="13.89" length="9.65" shape="173.88,315.95 175.98,309.47"/>
    </edge>
    <edge id="-26402554#2" from="25656678" to="1014526255" priority="4" type="highway.residential" shape="160.97,334.68 168.37,331.57 174.67,318.88">
        <lane id="-26402554#2_0" index="0" speed="13.89" length="22.20" shape="166.26,330.67 167.16,330.29 171.77,321.01"/>
    </edge>
    <edge id="-30764132" from="1272593674" to="21672816" priority="6" type="highway.tertiary">
        <lane id="-30764132_0" index="0" speed="22.22" length="7.84" shape="496.65,257.84 496.80,260.11"/>
    </edge>
    <edge id="-4083702#0" from="1165960386" to="21453765" priority="6" type="highway.tertiary">
        <lane id="-4083702#0_0" index="0" speed="22.22" length="10.46" shape="489.80,453.36 489.66,457.79"/>
    </edge>
    <edge id="-4083702#1" from="1826645348" to="1165960386" priority="6" type="highway.tertiary">
        <lane id="-4083702#1_0" index="0" speed="22.22" length="4.09" shape="490.01,449.31 489.80,453.39"/>
    </edge>
    <edge id="-4083702#2" from="282634162" to="1826645348" priority="6" type="highway.tertiary">
        <lane id="-4083702#2_0" index="0" speed="22.22" length="86.77" shape="493.19,362.57 490.01,449.29"/>
    </edge>
    <edge id="-4083702#3" from="1826645331" to="282634162" priority="6" type="highway.tertiary">
        <lane id="-4083702#3_0" index="0" speed="22.22" length="87.33" shape="498.13,275.65 493.19,362.60"/>
    </edge>
    <edge id="-4083702#4" from="523637094" to="1826645331" priority="6" type="highway.tertiary">
        <lane id="-4083702#4_0" index="0" speed="22.22" length="6.82" shape="497.53,268.39 498.12,274.94"/>
    </edge>
    <edge id="-4083702#5" from="21672816" to="523637094" priority="6" type="highway.tertiary">
        <lane id="-4083702#5_0" index="0" speed="22.22" length="8.34" shape="496.80,260.08 497.53,268.39"/>
    </edge>
    <edge id="-4335616#0" from="332441515" to="8810434" priority="15" type="highway.tertiary|railway.tram">
        <lane id="-4335616#0_0" index="0" speed="27.78" length="15.19" shape="13.79,340.57 -0.55,335.55"/>
    </edge>
    <edge id="-4335616#1" from="25656672" to="332441515" priority="15" type="highway.tertiary|railway.tram" shape="139.84,385.41 52.63,352.85 14.34,339.02">
        <lane id="-4335616#1_0" index="0" speed="27.78" length="133.81" shape="135.47,385.54 52.05,354.40 13.78,340.57"/>
    </edge>
    <edge id="-4335616#2" from="25656673" to="25656672" priority="15" type="highway.tertiary|railway.tram" shape="230.31,441.58 148.60,390.41 139.84,385.41">
        <lane id="-4335616#2_0" index="0" speed="27.78" length="106.49" shape="226.66,441.24 147.73,391.80 143.70,389.50"/>
    </edge>
    <edge id="-4335616#3" from="25656674" to="25656673" priority="15" type="highway.tertiary|railway.tram">
        <lane id="-4335616#3_0" index="0" speed="27.78" length="15.06" shape="240.16,449.78 231.91,444.56"/>
    </edge>
    <edge id="-4643188" from="25656672" to="25656678" priority="4" type="highway.residential" shape="139.84,385.41 145.95,378.07 160.97,334.68">
        <lane id="-4643188_0" index="0" speed="13.89" length="55.47" shape="142.01,380.22 144.49,377.24 158.44,336.93"/>
    </edge>
    <edge id="-4690286#0" from="1165960202" to="21453765" priority="4" type="highway.residential">
        <lane id="-4690286#0_0" index="0" speed="13.89" length="11.73" shape="485.70,475.42 485.90,470.50"/>
    </edge>
    <edge id="-4690286#1" from="1826645353" to="1165960202" priority="4" type="highway.residential">
        <lane id="-4690286#1_0" index="0" speed="13.89" length="3.37" shape="485.44,478.79 485.70,475.36"/>
    </edge>
    <edge id="-4690286#2" from="110612650" to="1826645353" priority="4" type="highway.residential" shape="487.14,524.66 486.33,508.44 487.09,478.85">
        <lane id="-4690286#2_0" index="0" speed="13.89" length="45.84" shape="485.34,521.73 484.68,508.52 485.44,478.81"/>
    </edge>
    <edge id="-4690286#3" from="1165960408" to="110612650" priority="4" type="highway.residential">
        <lane id="-4690286#3_0" index="0" speed="13.89" length="10.93" shape="486.08,535.49 485.67,527.91"/>
    </edge>
    <edge id="-4690286#4" from="1265671376" to="1165960408" priority="4" type="highway.residential" shape="499.17,638.98 498.19,631.78 490.38,593.31 485.06,568.32 487.39,542.51 487.74,535.57">
        <lane id="-4690286#4_0" index="0" speed="13.89" length="104.94" shape="497.53,639.21 496.55,632.00 488.76,593.64 483.39,568.42 485.75,542.36 486.08,535.65"/>
    </edge>
    <edge id="10157973#0" from="21453765" to="1165960267" priority="9" type="highway.primary" spreadType="center">
        <lane id="10157973#0_0" index="0" speed="27.78" length="12.16" shape="482.17,464.19 475.83,462.78"/>
        <lane id="10157973#0_1" index="1" speed="27.78" length="12.16" shape="482.89,460.97 476.55,459.56"/>
    </edge>
    <edge id="10157973#1" from="1165960267" to="1826645356" priority="9" type="highway.primary" spreadType="center" shape="475.96,461.12 443.95,458.82 383.42,456.02 375.95,455.25">
        <lane id="10157973#1_0" index="0" speed="27.78" length="100.19" shape="475.60,462.74 443.83,460.47 383.35,457.67 376.01,456.91"/>
        <lane id="10157973#1_1" index="1" speed="27.78" length="100.19" shape="475.84,459.45 444.07,457.17 383.50,454.37 376.35,453.63"/>
    </edge>
    <edge id="10157973#2" from="1826645356" to="703733516" priority="9" type="highway.primary" spreadType="center">
        <lane id="10157973#2_0" index="0" speed="27.78" length="4.78" shape="375.33,456.80 371.18,455.77"/>
        <lane id="10157973#2_1" index="1" speed="27.78" length="4.78" shape="376.13,453.59 371.98,452.56"/>
    </edge>
    <edge id="10157973#3" from="703733516" to="21456613" priority="9" type="highway.primary" spreadType="center">
        <lane id="10157973#3_0" index="0" speed="27.78" length="9.81" shape="370.41,455.51 361.61,451.69"/>
        <lane id="10157973#3_1" index="1" speed="27.78" length="9.81" shape="371.73,452.48 363.11,448.74"/>
    </edge>
    <edge id="10157973#4" from="21456613" to="1272589318" priority="9" type="highway.primary" spreadType="center">
        <lane id="10157973#4_0" index="0" speed="27.78" length="5.64" shape="361.61,451.69 360.17,450.97"/>
        <lane id="10157973#4_1" index="1" speed="27.78" length="5.64" shape="362.92,448.65 361.63,448.02"/>
    </edge>
    <edge id="10157973#5" from="1272589318" to="1272589321" priority="9" type="highway.primary" spreadType="center" shape="357.26,447.70 358.82,431.19 361.63,402.89 363.45,371.89 364.03,364.75">
        <lane id="10157973#5_0" index="0" speed="27.78" length="83.23" shape="356.01,443.34 357.18,431.03 359.99,402.72 361.80,371.79 362.39,364.59"/>
        <lane id="10157973#5_1" index="1" speed="27.78" length="83.23" shape="359.30,443.65 360.46,431.34 363.28,403.05 365.09,371.98 365.68,364.89"/>
    </edge>
    <edge id="10157973#6" from="1272589321" to="1272589341" priority="9" type="highway.primary" spreadType="center" shape="364.03,364.75 366.56,343.54 369.23,329.11 370.91,310.38">
        <lane id="10157973#6_0" index="0" speed="27.78" length="54.84" shape="362.39,364.56 364.93,343.34 367.60,328.81 369.26,310.22"/>
        <lane id="10157973#6_1" index="1" speed="27.78" length="54.84" shape="365.68,364.84 368.20,343.74 370.85,329.41 372.55,310.53"/>
    </edge>
    <edge id="10157973#7" from="1272589341" to="1272589339" priority="9" type="highway.primary" spreadType="center" shape="370.91,310.38 371.44,304.99 374.03,281.24 375.45,266.37">
        <lane id="10157973#7_0" index="0" speed="27.78" length="44.25" shape="369.26,310.22 369.80,304.83 372.39,281.06 373.66,267.70"/>
        <lane id="10157973#7_1" index="1" speed="27.78" length="44.25" shape="372.55,310.55 373.08,305.15 375.68,281.42 376.95,268.01"/>
    </edge>
    <edge id="109248212" from="25936560" to="21456616" priority="9" type="highway.primary">
        <lane id="109248212_0" index="0" speed="27.78" length="76.59" shape="198.15,195.71 128.91,171.31"/>
        <lane id="109248212_1" index="1" speed="27.78" length="76.59" shape="199.25,192.60 130.01,168.20"/>
    </edge>
    <edge id="109248219#0" from="1251239855" to="1251239866" priority="6" type="highway.tertiary" spreadType="center" shape="361.34,236.00 371.42,231.70 373.55,230.80">
        <lane id="109248219#0_0" index="0" speed="22.22" length="22.91" shape="371.53,229.86 372.37,229.51"/>
        <lane id="109248219#0_1" index="1" speed="22.22" length="22.91" shape="372.83,232.90 373.66,232.54"/>
    </edge>
    <edge id="109248219#1" from="1251239866" to="1272589329" priority="6" type="highway.tertiary" spreadType="center">
        <lane id="109248219#1_0" index="0" speed="22.22" length="8.60" shape="372.84,229.20 373.08,228.97"/>
        <lane id="109248219#1_1" index="1" speed="22.22" length="8.60" shape="375.11,231.59 375.35,231.36"/>
    </edge>
    <edge id="109248220#0" from="25936560" to="1251239857" priority="9" type="highway.primary" spreadType="center">
        <lane id="109248220#0_0" index="0" speed="27.78" length="19.02" shape="205.75,191.06 221.72,194.63"/>
        <lane id="109248220#0_1" index="1" speed="27.78" length="19.02" shape="205.00,194.28 221.00,197.85"/>
    </edge>
    <edge id="109248220#1" from="1251239857" to="1251239859" priority="9" type="highway.primary" spreadType="center">
        <lane id="109248220#1_0" index="0" speed="27.78" length="14.55" shape="221.69,194.62 233.57,197.08"/>
        <lane id="109248220#1_1" index="1" speed="27.78" length="14.55" shape="221.02,197.85 232.90,200.31"/>
    </edge>
    <edge id="109248222#0" from="1251239855" to="1826645327" priority="9" type="highway.primary" spreadType="center" shape="361.34,236.00 370.87,238.03 373.55,238.59">
        <lane id="109248222#0_0" index="0" speed="27.78" length="22.12" shape="373.21,236.83 373.91,236.98"/>
        <lane id="109248222#0_1" index="1" speed="27.78" length="22.12" shape="372.52,240.06 373.21,240.21"/>
    </edge>
    <edge id="109248222#1" from="1826645327" to="2742509030" priority="9" type="highway.primary" spreadType="center">
        <lane id="109248222#1_0" index="0" speed="27.78" length="4.92" shape="373.91,236.98 375.29,237.29"/>
        <lane id="109248222#1_1" index="1" speed="27.78" length="4.92" shape="373.19,240.20 374.56,240.51"/>
    </edge>
    <edge id="109248223" from="1251239859" to="1251239855" priority="9" type="highway.primary" spreadType="center">
        <lane id="109248223_0" index="0" speed="27.78" length="140.65" shape="239.49,198.61 368.31,236.32"/>
        <lane id="109248223_1" index="1" speed="27.78" length="140.65" shape="238.56,201.77 367.39,239.49"/>
    </edge>
    <edge id="111770906#0" from="1272589320" to="355008179" priority="9" type="highway.primary" spreadType="center" shape="374.56,255.60 371.39,248.95 366.73,244.73 232.72,205.58 220.20,199.84">
        <lane id="111770906#0_0" index="0" speed="27.78" length="167.04" shape="372.82,255.77 370.04,249.96 365.90,246.21 232.26,207.16 219.51,201.34"/>
        <lane id="111770906#0_1" index="1" speed="27.78" length="167.04" shape="375.80,254.35 372.74,247.95 367.55,243.26 233.18,203.99 220.89,198.34"/>
    </edge>
    <edge id="111770906#1" from="355008179" to="25936560" priority="9" type="highway.primary" spreadType="center">
        <lane id="111770906#1_0" index="0" speed="27.78" length="19.05" shape="219.53,201.35 204.88,194.83"/>
        <lane id="111770906#1_1" index="1" speed="27.78" length="19.05" shape="220.89,198.34 205.63,191.55"/>
    </edge>
    <edge id="111770907#0" from="1272589318" to="1014525824" priority="6" type="highway.tertiary" spreadType="center">
        <lane id="111770907#0_0" index="0" speed="22.22" length="10.69" shape="352.27,445.57 347.43,443.50"/>
    </edge>
    <edge id="111770907#1" from="1014525824" to="25656675" priority="6" type="highway.tertiary" spreadType="center" shape="347.43,443.50 286.80,424.60 275.34,427.96">
        <lane id="111770907#1_0" index="0" speed="22.22" length="75.45" shape="347.43,443.50 286.80,424.60 278.02,427.18"/>
    </edge>
    <edge id="111770907#2" from="25656675" to="25656677" priority="6" type="highway.tertiary" spreadType="center">
        <lane id="111770907#2_0" index="0" speed="22.22" length="17.91" shape="272.28,429.18 262.96,432.90"/>
    </edge>
    <edge id="111770907#3" from="25656677" to="25656674" priority="6" type="highway.tertiary" spreadType="center" shape="258.71,434.60 249.68,443.25 243.03,449.64">
        <lane id="111770907#3_0" index="0" speed="22.22" length="21.73" shape="255.51,437.67 249.68,443.25 246.24,446.56"/>
    </edge>
    <edge id="111770908" from="25656661" to="1272589326" priority="4" type="highway.residential" spreadType="center">
        <lane id="111770908_0" index="0" speed="13.89" length="36.18" shape="342.58,528.24 345.18,497.67"/>
    </edge>
    <edge id="111770910#0" from="1272589337" to="1272589334" priority="4" type="highway.residential" spreadType="center">
        <lane id="111770910#0_0" index="0" speed="13.89" length="16.79" shape="349.14,478.01 352.96,464.74"/>
    </edge>
    <edge id="111770910#1" from="1272589334" to="1272589319" priority="4" type="highway.residential" spreadType="center">
        <lane id="111770910#1_0" index="0" speed="13.89" length="3.25" shape="352.96,464.74 353.86,461.61"/>
    </edge>
    <edge id="111770910#2" from="1272589319" to="1272589318" priority="4" type="highway.residential" spreadType="center" shape="353.86,461.61 356.55,451.41 357.26,447.70">
        <lane id="111770910#2_0" index="0" speed="13.89" length="14.33" shape="353.86,461.62 356.16,452.89"/>
    </edge>
    <edge id="111771386#0" from="1272593674" to="1272593694" priority="9" type="highway.primary" spreadType="center">
        <lane id="111771386#0_0" index="0" speed="27.78" length="19.85" shape="500.39,251.63 514.39,253.82"/>
        <lane id="111771386#0_1" index="1" speed="27.78" length="19.85" shape="499.88,254.89 514.02,257.11"/>
    </edge>
    <edge id="111771386#1" from="1272593694" to="1826645298" priority="9" type="highway.primary" spreadType="center" shape="514.25,255.47 551.94,259.65 616.31,271.25 675.76,283.05 721.30,293.71">
        <lane id="111771386#1_0" index="0" speed="27.78" length="210.70" shape="514.56,253.85 552.12,258.01 616.60,269.62 676.08,281.43 721.69,292.11"/>
        <lane id="111771386#1_1" index="1" speed="27.78" length="210.70" shape="514.02,257.11 551.76,261.29 616.01,272.87 675.44,284.67 720.92,295.32"/>
    </edge>
    <edge id="111771386#2" from="1826645298" to="1272593695" priority="9" type="highway.primary" spreadType="center" shape="721.30,293.71 724.76,294.56 738.67,297.61 752.20,300.68 810.04,312.74 841.34,318.72 848.56,320.70 923.31,335.29 935.50,337.89">
        <lane id="111771386#2_0" index="0" speed="27.78" length="218.74" shape="721.69,292.11 725.15,292.95 739.02,296.00 752.56,299.07 810.37,311.13 841.65,317.10 849.00,319.11 923.62,333.67 935.84,336.27"/>
        <lane id="111771386#2_1" index="1" speed="27.78" length="218.74" shape="720.91,295.31 724.37,296.16 738.31,299.22 751.83,302.29 809.70,314.36 841.03,320.34 848.13,322.29 922.99,336.91 935.15,339.50"/>
    </edge>
    <edge id="111771388#0" from="1272589324" to="1272593690" priority="9" type="highway.primary" spreadType="center">
        <lane id="111771388#0_0" index="0" speed="27.78" length="5.84" shape="379.59,238.25 385.22,238.92"/>
        <lane id="111771388#0_1" index="1" speed="27.78" length="5.84" shape="379.20,241.52 384.83,242.20"/>
    </edge>
    <edge id="111771388#1" from="1272593690" to="1272593683" priority="9" type="highway.primary" spreadType="center" shape="385.02,240.56 428.97,245.77 472.66,250.26">
        <lane id="111771388#1_0" index="0" speed="27.78" length="88.17" shape="385.22,238.92 429.17,244.14 472.83,248.62"/>
        <lane id="111771388#1_1" index="1" speed="27.78" length="88.17" shape="384.83,242.20 428.78,247.41 472.49,251.91"/>
    </edge>
    <edge id="111771388#2" from="1272593683" to="1494140083" priority="9" type="highway.primary" spreadType="center">
        <lane id="111771388#2_0" index="0" speed="27.78" length="10.14" shape="472.80,248.62 482.93,249.50"/>
        <lane id="111771388#2_1" index="1" speed="27.78" length="10.14" shape="472.51,251.91 482.62,252.79"/>
    </edge>
    <edge id="111771388#3" from="1494140083" to="1272593674" priority="9" type="highway.primary" spreadType="center">
        <lane id="111771388#3_0" index="0" speed="27.78" length="11.94" shape="482.94,249.51 489.48,250.19"/>
        <lane id="111771388#3_1" index="1" speed="27.78" length="11.94" shape="482.59,252.79 489.14,253.48"/>
    </edge>
    <edge id="111771391#0" from="1272589329" to="1544913319" priority="6" type="highway.tertiary" spreadType="center" shape="379.79,224.87 381.16,203.51 384.79,158.61 388.29,115.34 388.54,111.95">
        <lane id="111771391#0_0" index="0" speed="22.22" length="113.27" shape="378.32,222.00 379.51,203.40 383.14,158.48 386.64,115.20 386.90,111.80"/>
        <lane id="111771391#0_1" index="1" speed="22.22" length="113.27" shape="381.62,222.21 382.81,203.61 386.43,158.74 389.93,115.47 390.19,112.07"/>
    </edge>
    <edge id="111771391#1" from="1544913319" to="1165967662" priority="6" type="highway.tertiary" spreadType="center" shape="388.54,111.95 392.12,77.43 395.97,41.25 396.92,32.32 404.84,15.30">
        <lane id="111771391#1_0" index="0" speed="22.22" length="98.84" shape="386.90,111.78 390.48,77.26 394.33,41.07 395.31,31.87 403.34,14.60"/>
        <lane id="111771391#1_1" index="1" speed="22.22" length="98.84" shape="390.18,112.12 393.76,77.60 397.61,41.42 398.53,32.76 406.33,16.00"/>
    </edge>
    <edge id="127409922" from="1272589326" to="1272589337" priority="4" type="highway.residential" spreadType="center">
        <lane id="127409922_0" index="0" speed="13.89" length="17.08" shape="345.18,497.67 347.69,484.22"/>
    </edge>
    <edge id="127909420" from="25656676" to="300118850" priority="4" type="highway.residential">
        <lane id="127909420_0" index="0" speed="13.89" length="49.86" shape="246.44,415.90 218.40,378.59"/>
    </edge>
    <edge id="131812756#0" from="1272593674" to="1031068869" priority="4" type="highway.residential">
        <lane id="131812756#0_0" index="0" speed="13.89" length="10.47" shape="492.64,247.16 492.31,242.23"/>
    </edge>
    <edge id="131812756#1" from="1031068869" to="1826645300" priority="4" type="highway.residential">
        <lane id="131812756#1_0" index="0" speed="13.89" length="2.62" shape="492.30,241.72 492.39,239.27"/>
    </edge>
    <edge id="131812756#2" from="1826645300" to="1165956849" priority="4" type="highway.residential" shape="494.04,239.33 496.23,162.94 500.64,9.51">
        <lane id="131812756#2_0" index="0" speed="13.89" length="229.91" shape="492.39,239.28 494.58,162.89 498.98,9.69"/>
    </edge>
    <edge id="131812756#3" from="1165956849" to="21672823" priority="4" type="highway.residential">
        <lane id="131812756#3_0" index="0" speed="13.89" length="9.65" shape="499.05,9.01 500.64,-0.28"/>
    </edge>
    <edge id="151874342" from="1272589339" to="1272589320" priority="9" type="highway.primary" spreadType="center">
        <lane id="151874342_0" index="0" speed="27.78" length="10.80" shape="373.69,265.19 372.97,256.33"/>
        <lane id="151874342_1" index="1" speed="27.78" length="10.80" shape="376.99,265.05 376.26,256.06"/>
    </edge>
    <edge id="246500334#0" from="1272589339" to="1272589345" priority="6" type="highway.tertiary" spreadType="center" shape="375.45,266.37 377.25,250.69 377.44,249.08">
        <lane id="246500334#0_0" index="0" speed="22.22" length="17.40" shape="375.62,264.89 377.25,250.69 377.44,249.08"/>
    </edge>
    <edge id="246500334#1" from="1272589345" to="2742509030" priority="6" type="highway.tertiary" spreadType="center">
        <lane id="246500334#1_0" index="0" speed="22.22" length="9.46" shape="377.44,249.09 377.91,244.22"/>
    </edge>
    <edge id="25908958" from="282628928" to="282628931" priority="4" type="highway.residential" shape="738.82,380.59 732.38,380.48 727.13,380.38 628.59,367.13 614.64,365.26 612.14,380.98 602.72,379.36 525.51,366.11">
        <lane id="25908958_0" index="0" speed="13.89" length="229.01" shape="738.79,382.24 732.35,382.12 727.10,382.03 628.37,368.77 616.02,367.11 613.50,382.89 602.44,380.99 525.23,367.73"/>
    </edge>
    <edge id="26306946" from="25656676" to="25656677" priority="4" type="highway.residential" shape="248.80,416.31 254.94,427.75 258.71,434.60">
        <lane id="26306946_0" index="0" speed="13.89" length="20.80" shape="252.36,419.44 256.40,426.97 258.85,431.43"/>
    </edge>
    <edge id="26402554#0" from="289251591" to="330632506" priority="4" type="highway.residential">
        <lane id="26402554#0_0" index="0" speed="13.89" length="55.61" shape="205.41,261.49 179.23,310.22"/>
    </edge>
    <edge id="26402554#1" from="330632506" to="1014526255" priority="4" type="highway.residential">
        <lane id="26402554#1_0" index="0" speed="13.89" length="9.65" shape="179.12,310.48 177.02,316.96"/>
    </edge>
    <edge id="26402554#2" from="1014526255" to="25656678" priority="4" type="highway.residential" shape="174.67,318.88 168.37,331.57 160.97,334.68">
        <lane id="26402554#2_0" index="0" speed="13.89" length="22.20" shape="174.73,322.47 169.57,332.86 167.54,333.71"/>
    </edge>
    <edge id="26687459#0" from="25656679" to="1165956856" priority="4" type="highway.residential" spreadType="center" shape="179.68,273.04 178.85,257.47 199.85,200.13">
        <lane id="26687459#0_0" index="0" speed="13.89" length="76.66" shape="179.49,269.60 178.85,257.47 199.85,200.13"/>
    </edge>
    <edge id="26687459#1" from="1165956856" to="25936560" priority="4" type="highway.residential" spreadType="center">
        <lane id="26687459#1_0" index="0" speed="13.89" length="8.55" shape="199.85,200.13 200.02,199.68"/>
    </edge>
    <edge id="26687519#0" from="25936446" to="1165956879" priority="4" type="highway.residential" spreadType="center" shape="303.24,60.98 299.15,69.13 263.55,140.15 237.97,193.93">
        <lane id="26687519#0_0" index="0" speed="13.89" length="148.12" shape="303.24,60.98 299.15,69.13 263.55,140.15 237.97,193.93"/>
    </edge>
    <edge id="26687519#1" from="1165956879" to="1251239859" priority="4" type="highway.residential" spreadType="center">
        <lane id="26687519#1_0" index="0" speed="13.89" length="5.77" shape="237.97,193.93 237.66,194.62"/>
    </edge>
    <edge id="26687630" from="25656672" to="25656624" priority="4" type="highway.residential" spreadType="center" shape="139.84,385.41 134.10,393.37 99.46,471.24 91.20,490.37 86.17,502.01 76.89,522.10 63.24,545.77">
        <lane id="26687630_0" index="0" speed="13.89" length="178.01" shape="136.74,389.71 134.10,393.37 99.46,471.24 91.20,490.37 86.17,502.01 76.89,522.10 63.24,545.77"/>
    </edge>
    <edge id="268960949" from="2742509030" to="1272589329" priority="6" type="highway.tertiary" spreadType="center">
        <lane id="268960949_0" index="0" speed="22.22" length="14.86" shape="378.84,234.72 378.99,233.14"/>
    </edge>
    <edge id="268960950" from="2742509030" to="1272589324" priority="9" type="highway.primary" spreadType="center">
        <lane id="268960950_0" index="0" speed="27.78" length="0.90" shape="379.06,238.13 379.26,238.18"/>
        <lane id="268960950_1" index="1" speed="27.78" length="0.90" shape="378.33,241.35 378.52,241.40"/>
    </edge>
    <edge id="27247661#0" from="25656678" to="330632509" priority="4" type="highway.residential" spreadType="center">
        <lane id="27247661#0_0" index="0" speed="13.89" length="34.94" shape="163.21,327.85 171.86,301.48"/>
    </edge>
    <edge id="27247661#1" from="330632509" to="25656679" priority="4" type="highway.residential" spreadType="center">
        <lane id="27247661#1_0" index="0" speed="13.89" length="29.49" shape="171.86,301.48 178.80,276.24"/>
    </edge>
    <edge id="27449046#0" from="25656674" to="1014525916" priority="15" type="highway.residential|railway.tram" spreadType="center" shape="243.03,449.64 250.26,455.22 264.79,466.35 288.24,485.75 308.19,502.27 316.15,509.71">
        <lane id="27449046#0_0" index="0" speed="27.78" length="94.67" shape="245.69,451.69 250.26,455.22 264.79,466.35 288.24,485.75 308.19,502.27 316.15,509.71"/>
    </edge>
    <edge id="27449046#1" from="1014525916" to="25656661" priority="15" type="highway.residential|railway.tram" spreadType="center">
        <lane id="27449046#1_0" index="0" speed="27.78" length="36.37" shape="316.15,509.71 339.97,529.34"/>
    </edge>
    <edge id="30124111#0" from="300118850" to="299047384" priority="4" type="highway.residential" spreadType="center">
        <lane id="30124111#0_0" index="0" speed="13.89" length="24.28" shape="217.94,375.33 203.35,357.76"/>
    </edge>
    <edge id="30124111#1" from="299047384" to="331960301" priority="4" type="highway.residential" spreadType="center" shape="203.35,357.76 184.88,328.91 178.20,320.76">
        <lane id="30124111#1_0" index="0" speed="13.89" length="44.79" shape="203.35,357.76 184.88,328.91 178.41,321.01"/>
    </edge>
    <edge id="30124111#2" from="331960301" to="1014526255" priority="4" type="highway.residential" spreadType="center">
        <lane id="30124111#2_0" index="0" speed="13.89" length="4.01" shape="178.20,320.76 178.03,320.67"/>
    </edge>
    <edge id="30764132" from="21672816" to="1272593674" priority="6" type="highway.tertiary">
        <lane id="30764132_0" index="0" speed="22.22" length="7.84" shape="493.51,260.35 493.36,258.05"/>
    </edge>
    <edge id="4048702#0" from="21453764" to="1826645347" priority="9" type="highway.primary" spreadType="center" shape="1060.62,561.31 956.82,541.94 945.20,539.77 877.59,527.78 868.86,526.22 761.29,506.41">