<?xml version="1.0" encoding="UTF-8"?>

<!-- generated on Fri May  1 10:51:37 2015 by SUMO duarouter Version 0.21.0
<?xml version="1.0" encoding="UTF-8"?>

<configuration xmlns:xsi="http://www.w3.org/2001/XMLSchema-instance" xsi:noNamespaceSchemaLocation="http://sumo-sim.org/xsd/duarouterConfiguration.xsd">

    <input>
        <net-file value="T-junction.net.xml"/>
        <flow-files value="T-junction.flows.xml"/>
    </input>

    <output>
        <output-file value="T-junction.rou.xml"/>
    </output>

    <processing>
        <ignore-errors value="true"/>
        <routing-algorithm value="astar"/>
    </processing>

    <report>
        <no-warnings value="true"/>
    </report>

</configuration>
-->

<routes xmlns:xsi="http://www.w3.org/2001/XMLSchema-instance" xsi:noNamespaceSchemaLocation="http://sumo-sim.org/xsd/routes_file.xsd">
    <vehicle id="1" depart="10.00">
        <route edges="7 1"/>
    </vehicle>
    <vehicle id="2" depart="10.00">
        <route edges="5 3"/>
    </vehicle>
    <vehicle id="3" depart="10.00">
        <route edges="0 1"/>
    </vehicle>
    <vehicle id="4" depart="10.00">
        <route edges="0 3"/>
    </vehicle>
    <vehicle id="5" depart="10.00">
        <route edges="7 4"/>
    </vehicle>
    <vehicle id="6" depart="10.00">
        <route edges="5 4"/>
    </vehicle>
    <vehicle id="7" depart="15.00">
        <route edges="7 1"/>
    </vehicle>
    <vehicle id="8" depart="15.00">
        <route edges="5 3"/>
    </vehicle>
    <vehicle id="9" depart="20.00">
        <route edges="7 1"/>
    </vehicle>
    <vehicle id="10" depart="20.00">
        <route edges="5 3"/>
    </vehicle>
    <vehicle id="11" depart="25.00">
        <route edges="7 1"/>
    </vehicle>
    <vehicle id="12" depart="25.00">
        <route edges="5 3"/>
    </vehicle>
    <vehicle id="13" depart="25.22">
        <route edges="0 1"/>
    </vehicle>
    <vehicle id="14" depart="27.50">
        <route edges="0 3"/>
    </vehicle>
    <vehicle id="15" depart="27.50">
        <route edges="7 4"/>
    </vehicle>
    <vehicle id="16" depart="27.50">
        <route edges="5 4"/>
    </vehicle>
    <vehicle id="17" depart="30.00">
        <route edges="7 1"/>
    </vehicle>
    <vehicle id="18" depart="30.00">
        <route edges="5 3"/>
    </vehicle>
    <vehicle id="19" depart="35.00">
        <route edges="7 1"/>
    </vehicle>
    <vehicle id="20" depart="35.00">
        <route edges="5 3"/>
    </vehicle>
    <vehicle id="21" depart="40.00">
        <route edges="7 1"/>
    </vehicle>
    <vehicle id="22" depart="40.00">
        <route edges="5 3"/>
    </vehicle>
    <vehicle id="23" depart="40.43">
        <route edges="0 1"/>
    </vehicle>
    <vehicle id="24" depart="45.00">
        <route edges="7 1"/>
    </vehicle>
    <vehicle id="25" depart="45.00">
        <route edges="5 3"/>
    </vehicle>
    <vehicle id="26" depart="45.00">
        <route edges="0 3"/>
    </vehicle>
    <vehicle id="27" depart="45.00">
        <route edges="7 4"/>
    </vehicle>
    <vehicle id="28" depart="45.00">
        <route edges="5 4"/>
    </vehicle>
    <vehicle id="29" depart="50.00">
        <route edges="7 1"/>
    </vehicle>
    <vehicle id="30" depart="50.00">
        <route edges="5 3"/>
    </vehicle>
    <vehicle id="31" depart="55.00">
        <route edges="7 1"/>
    </vehicle>
    <vehicle id="32" depart="55.00">
        <route edges="5 3"/>
    </vehicle>
    <vehicle id="33" depart="55.65">
        <route edges="0 1"/>
    </vehicle>
    <vehicle id="34" depart="60.00">
        <route edges="7 1"/>
    </vehicle>
    <vehicle id="35" depart="60.00">
        <route edges="5 3"/>
    </vehicle>
    <vehicle id="36" depart="62.50">
        <route edges="0 3"/>
    </vehicle>
    <vehicle id="37" depart="62.50">
        <route edges="7 4"/>
    </vehicle>
    <vehicle id="38" depart="62.50">
        <route edges="5 4"/>
    </vehicle>
    <vehicle id="39" depart="65.00">
        <route edges="7 1"/>
    </vehicle>
    <vehicle id="40" depart="65.00">
        <route edges="5 3"/>
    </vehicle>
    <vehicle id="41" depart="70.00">
        <route edges="7 1"/>
    </vehicle>
    <vehicle id="42" depart="70.00">
        <route edges="5 3"/>
    </vehicle>
    <vehicle id="43" depart="70.87">
        <route edges="0 1"/>
    </vehicle>
    <vehicle id="44" depart="75.00">
        <route edges="7 1"/>
    </vehicle>
    <vehicle id="45" depart="75.00">
        <route edges="5 3"/>
    </vehicle>
    <vehicle id="46" depart="80.00">
        <route edges="7 1"/>
    </vehicle>
    <vehicle id="47" depart="80.00">
        <route edges="5 3"/>
    </vehicle>
    <vehicle id="48" depart="80.00">
        <route edges="0 3"/>
    </vehicle>
    <vehicle id="49" depart="80.00">
        <route edges="7 4"/>
    </vehicle>
    <vehicle id="50" depart="80.00">
        <route edges="5 4"/>
    </vehicle>
    <vehicle id="51" depart="85.00">
        <route edges="7 1"/>
    </vehicle>
    <vehicle id="52" depart="85.00">
        <route edges="5 3"/>
    </vehicle>
    <vehicle id="53" depart="86.08">
        <route edges="0 1"/>
    </vehicle>
    <vehicle id="54" depart="90.00">
        <route edges="7 1"/>
    </vehicle>
    <vehicle id="55" depart="90.00">
        <route edges="5 3"/>
    </vehicle>
    <vehicle id="56" depart="95.00">
        <route edges="7 1"/>
    </vehicle>
    <vehicle id="57" depart="95.00">
        <route edges="5 3"/>
    </vehicle>
    <vehicle id="58" depart="97.50">
        <route edges="0 3"/>
    </vehicle>
    <vehicle id="59" depart="97.50">
        <route edges="7 4"/>
    </vehicle>
    <vehicle id="60" depart="97.50">
        <route edges="5 4"/>
    </vehicle>
    <vehicle id="61" depart="100.00">
        <route edges="7 1"/>
    </vehicle>
    <vehicle id="62" depart="100.00">
        <route edges="5 3"/>
    </vehicle>
    <vehicle id="63" depart="101.30">
        <route edges="0 1"/>
    </vehicle>
    <vehicle id="64" depart="105.00">
        <route edges="7 1"/>
    </vehicle>
    <vehicle id="65" depart="105.00">
        <route edges="5 3"/>
    </vehicle>
    <vehicle id="66" depart="110.00">
        <route edges="7 1"/>
    </vehicle>
    <vehicle id="67" depart="110.00">
        <route edges="5 3"/>
    </vehicle>
    <vehicle id="68" depart="115.00">
        <route edges="7 1"/>
    </vehicle>
    <vehicle id="69" depart="115.00">
        <route edges="5 3"/>
    </vehicle>
    <vehicle id="70" depart="115.00">
        <route edges="0 3"/>
    </vehicle>
    <vehicle id="71" depart="115.00">
        <route edges="7 4"/>
    </vehicle>
    <vehicle id="72" depart="115.00">
        <route edges="5 4"/>
    </vehicle>
    <vehicle id="73" depart="116.52">
        <route edges="0 1"/>
    </vehicle>
    <vehicle id="74" depart="120.00">
        <route edges="7 1"/>
    </vehicle>
    <vehicle id="75" depart="120.00">
        <route edges="5 3"/>
    </vehicle>
    <vehicle id="76" depart="125.00">
        <route edges="7 1"/>
    </vehicle>
    <vehicle id="77" depart="125.00">
        <route edges="5 3"/>
    </vehicle>
    <vehicle id="78" depart="130.00">
        <route edges="7 1"/>
    </vehicle>
    <vehicle id="79" depart="130.00">
        <route edges="5 3"/>
    </vehicle>
    <vehicle id="80" depart="131.74">
        <route edges="0 1"/>
    </vehicle>
    <vehicle id="81" depart="132.50">
        <route edges="0 3"/>
    </vehicle>
    <vehicle id="82" depart="132.50">
        <route edges="7 4"/>
    </vehicle>
    <vehicle id="83" depart="132.50">
        <route edges="5 4"/>
    </vehicle>
    <vehicle id="84" depart="135.00">
        <route edges="7 1"/>
    </vehicle>
    <vehicle id="85" depart="135.00">
        <route edges="5 3"/>
    </vehicle>
    <vehicle id="86" depart="140.00">
        <route edges="7 1"/>
    </vehicle>
    <vehicle id="87" depart="140.00">
        <route edges="5 3"/>
    </vehicle>
    <vehicle id="88" depart="145.00">
        <route edges="7 1"/>
    </vehicle>
    <vehicle id="89" depart="145.00">
        <route edges="5 3"/>
    </vehicle>
    <vehicle id="90" depart="146.95">
        <route edges="0 1"/>
    </vehicle>
    <vehicle id="91" depart="150.00">
        <route edges="7 1"/>
    </vehicle>
    <vehicle id="92" depart="150.00">
        <route edges="5 3"/>
    </vehicle>
    <vehicle id="93" depart="150.00">
        <route edges="0 3"/>
    </vehicle>
    <vehicle id="94" depart="150.00">
        <route edges="7 4"/>
    </vehicle>
    <vehicle id="95" depart="150.00">
        <route edges="5 4"/>
    </vehicle>
    <vehicle id="96" depart="155.00">
        <route edges="7 1"/>
    </vehicle>
    <vehicle id="97" depart="155.00">
        <route edges="5 3"/>
    </vehicle>
    <vehicle id="98" depart="160.00">
        <route edges="7 1"/>
    </vehicle>
    <vehicle id="99" depart="160.00">
        <route edges="5 3"/>
    </vehicle>
    <vehicle id="100" depart="162.17">
        <route edges="0 1"/>
    </vehicle>
    <vehicle id="101" depart="165.00">
        <route edges="7 1"/>
    </vehicle>
    <vehicle id="102" depart="165.00">
        <route edges="5 3"/>
    </vehicle>
    <vehicle id="103" depart="167.50">
        <route edges="0 3"/>
    </vehicle>
    <vehicle id="104" depart="167.50">
        <route edges="7 4"/>
    </vehicle>
    <vehicle id="105" depart="167.50">
        <route edges="5 4"/>
    </vehicle>
    <vehicle id="106" depart="170.00">
        <route edges="7 1"/>
    </vehicle>
    <vehicle id="107" depart="170.00">
        <route edges="5 3"/>
    </vehicle>
    <vehicle id="108" depart="175.00">
        <route edges="7 1"/>
    </vehicle>
    <vehicle id="109" depart="175.00">
        <route edges="5 3"/>
    </vehicle>
    <vehicle id="110" depart="177.39">
        <route edges="0 1"/>
    </vehicle>
    <vehicle id="111" depart="180.00">
        <route edges="7 1"/>
    </vehicle>
    <vehicle id="112" depart="180.00">
        <route edges="5 3"/>
    </vehicle>
    <vehicle id="113" depart="185.00">
        <route edges="7 1"/>
    </vehicle>
    <vehicle id="114" depart="185.00">
        <route edges="5 3"/>
    </vehicle>
    <vehicle id="115" depart="185.00">
        <route edges="0 3"/>
    </vehicle>
    <vehicle id="116" depart="185.00">
        <route edges="7 4"/>
    </vehicle>
    <vehicle id="117" depart="185.00">
        <route edges="5 4"/>
    </vehicle>
    <vehicle id="118" depart="190.00">
        <route edges="7 1"/>
    </vehicle>
    <vehicle id="119" depart="190.00">
        <route edges="5 3"/>
    </vehicle>
    <vehicle id="120" depart="192.60">
        <route edges="0 1"/>
    </vehicle>
    <vehicle id="121" depart="195.00">
        <route edges="7 1"/>
    </vehicle>
    <vehicle id="122" depart="195.00">
        <route edges="5 3"/>
    </vehicle>
    <vehicle id="123" depart="200.00">
        <route edges="7 1"/>
    </vehicle>
    <vehicle id="124" depart="200.00">
        <route edges="5 3"/>
    </vehicle>
    <vehicle id="125" depart="202.50">
        <route edges="0 3"/>
    </vehicle>
    <vehicle id="126" depart="202.50">
        <route edges="7 4"/>
    </vehicle>
    <vehicle id="127" depart="202.50">
        <route edges="5 4"/>
    </vehicle>
    <vehicle id="128" depart="205.00">
        <route edges="7 1"/>
    </vehicle>
    <vehicle id="129" depart="205.00">
        <route edges="5 3"/>
    </vehicle>
    <vehicle id="130" depart="207.82">
        <route edges="0 1"/>
    </vehicle>
    <vehicle id="131" depart="210.00">
        <route edges="7 1"/>
    </vehicle>
    <vehicle id="132" depart="210.00">
        <route edges="5 3"/>
    </vehicle>
    <vehicle id="133" depart="215.00">
        <route edges="7 1"/>
    </vehicle>
    <vehicle id="134" depart="215.00">
        <route edges="5 3"/>
    </vehicle>
    <vehicle id="135" depart="220.00">
        <route edges="7 1"/>
    </vehicle>
    <vehicle id="136" depart="220.00">
        <route edges="5 3"/>
    </vehicle>
    <vehicle id="137" depart="220.00">
        <route edges="0 3"/>
    </vehicle>
    <vehicle id="138" depart="220.00">
        <route edges="7 4"/>
    </vehicle>
    <vehicle id="139" depart="220.00">
        <route edges="5 4"/>
    </vehicle>
    <vehicle id="140" depart="223.04">
        <route edges="0 1"/>
    </vehicle>
    <vehicle id="141" depart="225.00">
        <route edges="7 1"/>
    </vehicle>
    <vehicle id="142" depart="225.00">
        <route edges="5 3"/>
    </vehicle>
    <vehicle id="143" depart="230.00">
        <route edges="7 1"/>
    </vehicle>
    <vehicle id="144" depart="230.00">
        <route edges="5 3"/>
    </vehicle>
    <vehicle id="145" depart="235.00">
        <route edges="7 1"/>
    </vehicle>
    <vehicle id="146" depart="235.00">
        <route edges="5 3"/>
    </vehicle>
    <vehicle id="147" depart="237.50">
        <route edges="0 3"/>
    </vehicle>
    <vehicle id="148" depart="237.50">
        <route edges="7 4"/>
    </vehicle>
    <vehicle id="149" depart="237.50">
        <route edges="5 4"/>
    </vehicle>
    <vehicle id="150" depart="238.25">
        <route edges="0 1"/>
    </vehicle>
    <vehicle id="151" depart="240.00">
        <route edges="7 1"/>
    </vehicle>
    <vehicle id="152" depart="240.00">
        <route edges="5 3"/>
    </vehicle>
    <vehicle id="153" depart="245.00">
        <route edges="7 1"/>
    </vehicle>
    <vehicle id="154" depart="245.00">
        <route edges="5 3"/>
    </vehicle>
    <vehicle id="155" depart="250.00">
        <route edges="7 1"/>
    </vehicle>
    <vehicle id="156" depart="250.00">
        <route edges="5 3"/>
    </vehicle>
    <vehicle id="157" depart="253.47">
        <route edges="0 1"/>
    </vehicle>
    <vehicle id="158" depart="255.00">
        <route edges="7 1"/>
    </vehicle>
    <vehicle id="159" depart="255.00">
        <route edges="5 3"/>
    </vehicle>
    <vehicle id="160" depart="255.00">
        <route edges="0 3"/>
    </vehicle>
    <vehicle id="161" depart="255.00">
        <route edges="7 4"/>
    </vehicle>
    <vehicle id="162" depart="255.00">
        <route edges="5 4"/>
    </vehicle>
    <vehicle id="163" depart="260.00">
        <route edges="7 1"/>
    </vehicle>
    <vehicle id="164" depart="260.00">
        <route edges="5 3"/>
    </vehicle>
    <vehicle id="165" depart="265.00">
        <route edges="7 1"/>
    </vehicle>
    <vehicle id="166" depart="265.00">
        <route edges="5 3"/>
    </vehicle>
    <vehicle id="167" depart="268.69">
        <route edges="0 1"/>
    </vehicle>
    <vehicle id="168" depart="270.00">
        <route edges="7 1"/>
    </vehicle>
    <vehicle id="169" depart="270.00">
        <route edges="5 3"/>
    </vehicle>
    <vehicle id="170" depart="272.50">
        <route edges="0 3"/>
    </vehicle>
    <vehicle id="171" depart="272.50">
        <route edges="7 4"/>
    </vehicle>
    <vehicle id="172" depart="272.50">
        <route edges="5 4"/>
    </vehicle>
    <vehicle id="173" depart="275.00">
        <route edges="7 1"/>
    </vehicle>
    <vehicle id="174" depart="275.00">
        <route edges="5 3"/>
    </vehicle>
    <vehicle id="175" depart="280.00">
        <route edges="7 1"/>
    </vehicle>
    <vehicle id="176" depart="280.00">
        <route edges="5 3"/>
    </vehicle>
    <vehicle id="177" depart="283.91">
        <route edges="0 1"/>
    </vehicle>
    <vehicle id="178" depart="285.00">
        <route edges="7 1"/>
    </vehicle>
    <vehicle id="179" depart="285.00">
        <route edges="5 3"/>
    </vehicle>
    <vehicle id="180" depart="290.00">
        <route edges="7 1"/>
    </vehicle>
    <vehicle id="181" depart="290.00">
        <route edges="5 3"/>
    </vehicle>
    <vehicle id="182" depart="290.00">
        <route edges="0 3"/>
    </vehicle>
    <vehicle id="183" depart="290.00">
        <route edges="7 4"/>
    </vehicle>
    <vehicle id="184" depart="290.00">
        <route edges="5 4"/>
    </vehicle>
    <vehicle id="185" depart="295.00">
        <route edges="7 1"/>
    </vehicle>
    <vehicle id="186" depart="295.00">
        <route edges="5 3"/>
    </vehicle>
    <vehicle id="187" depart="299.12">
        <route edges="0 1"/>
    </vehicle>
    <vehicle id="188" depart="300.00">
        <route edges="7 1"/>
    </vehicle>
    <vehicle id="189" depart="300.00">
        <route edges="5 3"/>
    </vehicle>
    <vehicle id="190" depart="305.00">
        <route edges="7 1"/>
    </vehicle>
    <vehicle id="191" depart="305.00">
        <route edges="5 3"/>
    </vehicle>
    <vehicle id="192" depart="307.50">
        <route edges="0 3"/>
    </vehicle>
    <vehicle id="193" depart="307.50">
        <route edges="7 4"/>
    </vehicle>
    <vehicle id="194" depart="307.50">
        <route edges="5 4"/>
    </vehicle>
    <vehicle id="195" depart="310.00">
        <route edges="7 1"/>
    </vehicle>
    <vehicle id="196" depart="310.00">
        <route edges="5 3"/>
    </vehicle>
    <vehicle id="197" depart="314.34">
        <route edges="0 1"/>
    </vehicle>
    <vehicle id="198" depart="315.00">
        <route edges="7 1"/>
    </vehicle>
    <vehicle id="199" depart="315.00">
        <route edges="5 3"/>
    </vehicle>
    <vehicle id="200" depart="320.00">
        <route edges="7 1"/>
    </vehicle>
    <vehicle id="201" depart="320.00">
        <route edges="5 3"/>
    </vehicle>
    <vehicle id="202" depart="325.00">
        <route edges="7 1"/>
    </vehicle>
    <vehicle id="203" depart="325.00">
        <route edges="5 3"/>
    </vehicle>
    <vehicle id="204" depart="325.00">
        <route edges="0 3"/>
    </vehicle>
    <vehicle id="205" depart="325.00">
        <route edges="7 4"/>
    </vehicle>
    <vehicle id="206" depart="325.00">
        <route edges="5 4"/>
    </vehicle>
    <vehicle id="207" depart="329.56">
        <route edges="0 1"/>
    </vehicle>
    <vehicle id="208" depart="330.00">
        <route edges="7 1"/>
    </vehicle>
    <vehicle id="209" depart="330.00">
        <route edges="5 3"/>
    </vehicle>
    <vehicle id="210" depart="335.00">
        <route edges="7 1"/>
    </vehicle>
    <vehicle id="211" depart="335.00">
        <route edges="5 3"/>
    </vehicle>
    <vehicle id="212" depart="340.00">
        <route edges="7 1"/>
    </vehicle>
    <vehicle id="213" depart="340.00">
        <route edges="5 3"/>
    </vehicle>
    <vehicle id="214" depart="342.50">
        <route edges="0 3"/>
    </vehicle>
    <vehicle id="215" depart="342.50">
        <route edges="7 4"/>
    </vehicle>
    <vehicle id="216" depart="342.50">
        <route edges="5 4"/>
    </vehicle>
    <vehicle id="217" depart="344.77">
        <route edges="0 1"/>
    </vehicle>
    <vehicle id="218" depart="345.00">
        <route edges="7 1"/>
    </vehicle>
    <vehicle id="219" depart="345.00">
        <route edges="5 3"/>
    </vehicle>
    <vehicle id="220" depart="350.00">
        <route edges="7 1"/>
    </vehicle>
    <vehicle id="221" depart="350.00">
        <route edges="5 3"/>
    </vehicle>
    <vehicle id="222" depart="355.00">
        <route edges="7 1"/>
    </vehicle>
    <vehicle id="223" depart="355.00">
        <route edges="5 3"/>
    </vehicle>
</routes>
