<?xml version="1.0" encoding="UTF-8"?>

<!-- generated on 07/11/18 20:08:39 by SUMO netconvert Version 0.32.0
<?xml version="1.0" encoding="UTF-8"?>

<configuration xmlns:xsi="http://www.w3.org/2001/XMLSchema-instance" xsi:noNamespaceSchemaLocation="http://sumo.dlr.de/xsd/netconvertConfiguration.xsd">

    <input>
        <osm-files value=".\mlada-boleslav\mlada-boleslav.osm"/>
    </input>

    <output>
        <output-file value=".\mlada-boleslav\mlada-boleslav.net.xml"/>
    </output>

    <projection>
        <proj value="+proj=utm +ellps=bessel +units=m"/>
    </projection>

    <tls_building>
        <tls.join value="true"/>
    </tls_building>

    <processing>
        <no-internal-links value="true"/>
        <no-turnarounds value="false"/>
    </processing>

</configuration>
-->

<net version="0.27" xmlns:xsi="http://www.w3.org/2001/XMLSchema-instance" xsi:noNamespaceSchemaLocation="http://sumo.dlr.de/xsd/net_file.xsd">

    <location netOffset="-1767367.57,-5739861.94" convBoundary="0.00,0.00,2687.57,2436.76" origBoundary="14.904430,50.417582,14.939812,50.439599" projParameter="+proj=utm +ellps=bessel +units=m"/>

    <type id="highway.bridleway" priority="1" numLanes="1" speed="2.78" allow="pedestrian" oneway="1" width="2.00"/>
    <type id="highway.bus_guideway" priority="1" numLanes="1" speed="8.33" allow="bus" oneway="1"/>
    <type id="highway.cycleway" priority="1" numLanes="1" speed="5.56" allow="bicycle" oneway="0" width="1.00"/>
    <type id="highway.footway" priority="1" numLanes="1" speed="2.78" allow="pedestrian" oneway="1" width="2.00"/>
    <type id="highway.ford" priority="1" numLanes="1" speed="2.78" allow="army" oneway="0"/>
    <type id="highway.living_street" priority="3" numLanes="1" speed="2.78" disallow="tram rail_urban rail rail_electric ship" oneway="0"/>
    <type id="highway.motorway" priority="13" numLanes="2" speed="44.44" allow="private emergency authority army vip passenger hov taxi bus coach delivery truck trailer motorcycle evehicle custom1 custom2" oneway="1"/>
    <type id="highway.motorway_link" priority="12" numLanes="1" speed="22.22" allow="private emergency authority army vip passenger hov taxi bus coach delivery truck trailer motorcycle evehicle custom1 custom2" oneway="1"/>
    <type id="highway.path" priority="1" numLanes="1" speed="2.78" allow="bicycle pedestrian" oneway="1" width="2.00"/>
    <type id="highway.pedestrian" priority="1" numLanes="1" speed="2.78" allow="pedestrian" oneway="1" width="2.00"/>
    <type id="highway.primary" priority="9" numLanes="2" speed="27.78" disallow="tram rail_urban rail rail_electric ship" oneway="0"/>
    <type id="highway.primary_link" priority="8" numLanes="1" speed="22.22" disallow="tram rail_urban rail rail_electric ship" oneway="0"/>
    <type id="highway.raceway" priority="14" numLanes="2" speed="83.33" allow="vip" oneway="0"/>
    <type id="highway.residential" priority="4" numLanes="1" speed="13.89" disallow="tram rail_urban rail rail_electric ship" oneway="0"/>
    <type id="highway.secondary" priority="7" numLanes="2" speed="27.78" disallow="tram rail_urban rail rail_electric ship" oneway="0"/>
    <type id="highway.secondary_link" priority="6" numLanes="1" speed="22.22" disallow="tram rail_urban rail rail_electric ship" oneway="0"/>
    <type id="highway.service" priority="2" numLanes="1" speed="5.56" allow="delivery bicycle pedestrian" oneway="0"/>
    <type id="highway.services" priority="1" numLanes="1" speed="8.33" disallow="tram rail_urban rail rail_electric ship" oneway="0"/>
    <type id="highway.stairs" priority="1" numLanes="1" speed="1.39" allow="pedestrian" oneway="1" width="2.00"/>
    <type id="highway.step" priority="1" numLanes="1" speed="1.39" allow="pedestrian" oneway="1" width="2.00"/>
    <type id="highway.steps" priority="1" numLanes="1" speed="1.39" allow="pedestrian" oneway="1" width="2.00"/>
    <type id="highway.tertiary" priority="6" numLanes="1" speed="22.22" disallow="tram rail_urban rail rail_electric ship" oneway="0"/>
    <type id="highway.tertiary_link" priority="5" numLanes="1" speed="22.22" disallow="tram rail_urban rail rail_electric ship" oneway="0"/>
    <type id="highway.track" priority="1" numLanes="1" speed="5.56" disallow="tram rail_urban rail rail_electric ship" oneway="0"/>
    <type id="highway.trunk" priority="11" numLanes="2" speed="27.78" disallow="tram rail_urban rail rail_electric bicycle pedestrian ship" oneway="0"/>
    <type id="highway.trunk_link" priority="10" numLanes="1" speed="22.22" disallow="tram rail_urban rail rail_electric bicycle pedestrian ship" oneway="0"/>
    <type id="highway.unclassified" priority="5" numLanes="1" speed="13.89" disallow="tram rail_urban rail rail_electric ship" oneway="0"/>
    <type id="highway.unsurfaced" priority="1" numLanes="1" speed="8.33" disallow="tram rail_urban rail rail_electric ship" oneway="0"/>
    <type id="railway.light_rail" priority="15" numLanes="1" speed="27.78" allow="rail_urban" oneway="1"/>
    <type id="railway.preserved" priority="15" numLanes="1" speed="27.78" allow="rail" oneway="1"/>
    <type id="railway.rail" priority="15" numLanes="1" speed="83.33" allow="rail rail_electric" oneway="1"/>
    <type id="railway.subway" priority="15" numLanes="1" speed="27.78" allow="rail_urban" oneway="1"/>
    <type id="railway.tram" priority="15" numLanes="1" speed="13.89" allow="tram" oneway="1"/>

    <edge id="-109161019#0" from="1250408630" to="5010080614" priority="2" type="highway.service" shape="1768.65,406.83 1788.40,412.20 1920.20,383.48 1966.50,373.39 1968.32,372.97 1987.57,368.49 1990.15,367.88 2023.46,360.99 2031.00,362.87 2035.44,366.77 2048.84,426.23 2053.03,432.02 2063.35,434.00 2222.61,401.24 2237.90,399.12">
        <lane id="-109161019#0_0" index="0" allow="delivery bicycle pedestrian" speed="5.56" length="531.36" shape="1775.68,407.03 1788.45,410.50 1919.85,381.86 1966.15,371.78 1967.94,371.36 1987.19,366.88 1989.80,366.27 2023.50,359.30 2031.79,361.37 2036.93,365.88 2050.37,425.53 2053.98,430.52 2063.34,432.31 2222.33,399.62 2237.67,397.49"/>
    </edge>
    <edge id="-109161019#1" from="1250408231" to="1250408630" priority="2" type="highway.service" shape="1577.49,448.08 1750.27,410.80 1768.65,406.83">
        <lane id="-109161019#1_0" index="0" allow="delivery bicycle pedestrian" speed="5.56" length="195.56" shape="1581.79,445.47 1749.92,409.19 1763.65,406.22"/>
    </edge>
    <edge id="-109161019#2" from="3178649982" to="1250408231" priority="2" type="highway.service" shape="1318.98,474.90 1469.48,439.50 1557.20,450.20 1577.49,448.08">
        <lane id="-109161019#2_0" index="0" allow="delivery bicycle pedestrian" speed="5.56" length="263.38" shape="1321.29,472.66 1469.39,437.83 1557.21,448.54 1572.93,446.90"/>
    </edge>
    <edge id="-109161022" from="1250408231" to="1250408285" priority="2" type="highway.service">
        <lane id="-109161022_0" index="0" allow="delivery bicycle pedestrian" speed="5.56" length="360.69" shape="1580.10,452.38 1653.75,795.80"/>
    </edge>
    <edge id="-109161023#0" from="1250408620" to="1250408636" priority="2" type="highway.service" shape="1240.17,195.06 1236.92,184.56 1219.48,100.42 1222.02,96.12 1230.33,92.94 1248.52,89.36">
        <lane id="-109161023#0_0" index="0" allow="delivery bicycle pedestrian" speed="5.56" length="129.35" shape="1237.14,190.87 1235.32,184.98 1217.74,100.13 1220.89,94.78 1229.87,91.35 1248.20,87.74"/>
    </edge>
    <edge id="-109161023#1" from="2084811619" to="1250408620" priority="2" type="highway.service" shape="1291.48,439.64 1241.58,201.77 1240.17,195.06">
        <lane id="-109161023#1_0" index="0" allow="delivery bicycle pedestrian" speed="5.56" length="249.91" shape="1288.91,435.43 1239.97,202.11 1239.57,200.21"/>
    </edge>
    <edge id="-109161023#2" from="3178649977" to="2084811619" priority="2" type="highway.service">
        <lane id="-109161023#2_0" index="0" allow="delivery bicycle pedestrian" speed="5.56" length="22.16" shape="1294.41,458.90 1291.03,444.84"/>
    </edge>
    <edge id="-109161038#0" from="3657852062" to="1250408501" priority="2" type="highway.service" shape="1929.84,1168.47 1952.95,1165.73 1977.35,1157.92 2003.09,1149.93 2272.01,1092.98 2282.93,1082.31 2287.59,1069.83 2271.91,997.20 2360.67,978.75">
        <lane id="-109161038#0_0" index="0" allow="delivery bicycle pedestrian" speed="5.56" length="544.27" shape="1934.13,1166.30 1952.60,1164.11 1976.85,1156.34 2002.67,1148.33 2271.20,1091.46 2281.52,1081.39 2285.88,1069.71 2269.95,995.92 2360.33,977.13"/>
    </edge>
    <edge id="-109161038#1" from="1250408551" to="3657852062" priority="2" type="highway.service">
        <lane id="-109161038#1_0" index="0" allow="delivery bicycle pedestrian" speed="5.56" length="97.82" shape="1913.44,1076.89 1930.59,1163.73"/>
    </edge>
    <edge id="-109161038#2" from="1250408320" to="1250408551" priority="2" type="highway.service" shape="1448.14,1166.70 1459.59,1170.14 1545.60,1153.03 1565.44,1145.90 1910.89,1072.51">
        <lane id="-109161038#2_0" index="0" allow="delivery bicycle pedestrian" speed="5.56" length="473.89" shape="1459.35,1168.35 1459.67,1168.44 1545.16,1151.43 1564.98,1144.31 1905.85,1071.89"/>
    </edge>
    <edge id="-109161038#3" from="4815868694" to="1250408320" priority="2" type="highway.service" shape="1408.94,983.39 1442.46,1149.50 1448.14,1166.70">
        <lane id="-109161038#3_0" index="0" allow="delivery bicycle pedestrian" speed="5.56" length="187.57" shape="1411.50,987.73 1444.06,1149.08 1448.70,1163.15"/>
    </edge>
    <edge id="-109161038#4" from="2084811745" to="4815868694" priority="2" type="highway.service">
        <lane id="-109161038#4_0" index="0" allow="delivery bicycle pedestrian" speed="5.56" length="39.86" shape="1403.63,948.79 1409.62,978.42"/>
    </edge>
    <edge id="-109161038#5" from="1250408237" to="2084811745" priority="2" type="highway.service" shape="1383.45,863.92 1395.00,914.36 1401.05,944.32">
        <lane id="-109161038#5_0" index="0" allow="delivery bicycle pedestrian" speed="5.56" length="82.31" shape="1386.12,868.16 1396.61,914.01 1401.72,939.29"/>
    </edge>
    <edge id="-109161039#0" from="1250408626" to="1250408494" priority="2" type="highway.service">
        <lane id="-109161039#0_0" index="0" allow="delivery bicycle pedestrian" speed="5.56" length="142.96" shape="1848.79,759.75 1984.04,731.34"/>
    </edge>
    <edge id="-109161039#1" from="1250408285" to="1250408626" priority="2" type="highway.service">
        <lane id="-109161039#1_0" index="0" allow="delivery bicycle pedestrian" speed="5.56" length="195.16" shape="1657.42,798.21 1839.45,761.67"/>
    </edge>
    <edge id="-109161039#2" from="1250408237" to="1250408285" priority="2" type="highway.service">
        <lane id="-109161039#2_0" index="0" allow="delivery bicycle pedestrian" speed="5.56" length="276.98" shape="1387.68,861.23 1648.18,800.21"/>
    </edge>
    <edge id="-109161039#3" from="480585212" to="1250408237" priority="2" type="highway.service" shape="1250.36,910.00 1310.99,897.91 1343.26,871.60 1383.45,863.92">
        <lane id="-109161039#3_0" index="0" allow="delivery bicycle pedestrian" speed="5.56" length="149.56" shape="1248.98,908.59 1310.27,896.37 1342.54,870.06 1378.59,863.17"/>
    </edge>
    <edge id="-109161042#0" from="1250408325" to="3178649985" priority="2" type="highway.service">
        <lane id="-109161042#0_0" index="0" allow="delivery bicycle pedestrian" speed="5.56" length="23.36" shape="1262.25,473.93 1278.55,474.81"/>
    </edge>
    <edge id="-109161042#1" from="480585209" to="1250408325" priority="2" type="highway.service">
        <lane id="-109161042#1_0" index="0" allow="delivery bicycle pedestrian" speed="5.56" length="96.81" shape="1162.50,489.75 1253.09,474.53"/>
    </edge>
    <edge id="-109161043#0" from="1250408626" to="1250408551" priority="2" type="highway.service">
        <lane id="-109161043#0_0" index="0" allow="delivery bicycle pedestrian" speed="8.33" length="317.19" shape="1847.08,766.66 1911.51,1067.51"/>
    </edge>
    <edge id="-109161043#1" from="1250408630" to="1250408626" priority="2" type="highway.service">
        <lane id="-109161043#1_0" index="0" allow="delivery bicycle pedestrian" speed="8.33" length="363.51" shape="1771.69,413.17 1845.09,757.32"/>
    </edge>
    <edge id="-109161043#2" from="1250408381" to="1250408630" priority="2" type="highway.service">
        <lane id="-109161043#2_0" index="0" allow="delivery bicycle pedestrian" speed="8.33" length="40.01" shape="1766.22,371.92 1769.77,402.22"/>
    </edge>
    <edge id="-109161049#0" from="1250408648" to="1250408288" priority="14" type="highway.raceway">
        <lane id="-109161049#0_0" index="0" allow="vip" speed="83.33" length="194.34" shape="1291.92,429.60 1252.51,242.75"/>
        <lane id="-109161049#0_1" index="1" allow="vip" speed="83.33" length="194.34" shape="1295.15,428.92 1255.74,242.07"/>
    </edge>
    <edge id="-109161049#1" from="2084811615" to="1250408648" priority="14" type="highway.raceway" shape="1307.27,436.83 1302.26,435.82 1298.78,432.91 1296.89,429.20">
        <lane id="-109161049#1_0" index="0" allow="vip" speed="83.33" length="13.34" shape="1294.25,434.93 1294.16,434.76"/>
        <lane id="-109161049#1_1" index="1" allow="vip" speed="83.33" length="13.34" shape="1297.01,433.07 1296.92,432.89"/>
    </edge>
    <edge id="-109161049#2" from="1250408288" to="2084811615" priority="14" type="highway.raceway" shape="1257.52,242.51 1259.74,238.10 1264.32,235.79 1268.90,236.30 1273.19,238.36 1278.18,244.35 1313.43,406.78 1316.95,426.14 1315.62,430.96 1312.83,434.43 1307.27,436.83">
        <lane id="-109161049#2_0" index="0" allow="vip" speed="83.33" length="228.28" shape="1255.56,235.40 1256.05,234.42 1263.41,230.70 1270.28,231.47 1276.30,234.36 1282.76,242.11 1318.28,405.81 1322.02,426.36 1320.13,433.27 1315.92,438.49 1312.47,439.97"/>
        <lane id="-109161049#2_1" index="1" allow="vip" speed="83.33" length="228.28" shape="1258.36,237.16 1258.51,236.88 1264.02,234.09 1269.36,234.69 1274.22,237.03 1279.71,243.60 1315.05,406.45 1318.64,426.21 1317.13,431.73 1313.86,435.78 1311.17,436.94"/>
    </edge>
    <edge id="-109161054" from="1250408620" to="1250408325" priority="2" type="highway.service" shape="1240.17,195.06 1234.54,196.53 1173.28,209.32 1164.49,216.13 1164.44,228.29 1215.44,459.71 1253.67,452.78 1258.15,475.36">
        <lane id="-109161054_0" index="0" allow="delivery bicycle pedestrian" speed="5.56" length="390.51" shape="1235.84,197.90 1234.92,198.14 1173.99,210.86 1166.14,216.94 1166.09,228.11 1216.71,457.80 1254.97,450.87 1258.82,470.28"/>
    </edge>
    <edge id="-109161056" from="1250408494" to="1250408210" priority="2" type="highway.service">
        <lane id="-109161056_0" index="0" allow="delivery bicycle pedestrian" speed="5.56" length="17.84" shape="1984.04,731.34 2001.49,727.68"/>
    </edge>
    <edge id="-109161057#0" from="5010080863" to="1250408374" priority="14" type="highway.raceway">
        <lane id="-109161057#0_0" index="0" allow="vip" speed="83.33" length="8.42" shape="1459.45,890.85 1462.68,888.76"/>
        <lane id="-109161057#0_1" index="1" allow="vip" speed="83.33" length="8.42" shape="1461.25,893.62 1464.48,891.53"/>
    </edge>
    <edge id="-109161057#1" from="2084811740" to="5010080863" priority="14" type="highway.raceway" shape="1569.75,892.96 1473.23,915.72 1469.65,915.27 1465.87,913.75 1461.85,910.03 1459.61,904.95 1459.91,900.95 1462.56,894.73">
        <lane id="-109161057#1_0" index="0" allow="vip" speed="83.33" length="126.83" shape="1565.74,898.99 1473.50,920.74 1468.40,920.10 1463.18,918.01 1457.74,912.96 1454.58,905.82 1455.03,899.77 1455.12,899.56"/>
        <lane id="-109161057#1_1" index="1" allow="vip" speed="83.33" length="126.83" shape="1564.99,895.78 1473.32,917.39 1469.24,916.88 1464.98,915.17 1460.48,911.01 1457.94,905.24 1458.26,900.85"/>
    </edge>
    <edge id="-109161057#2" from="1250408533" to="2084811740" priority="14" type="highway.raceway" shape="1659.98,851.47 1665.59,853.41 1669.07,855.88 1671.03,861.25 1670.76,866.27 1667.42,871.34 1660.29,874.02 1569.75,892.96">
        <lane id="-109161057#2_0" index="0" allow="vip" speed="83.33" length="125.85" shape="1668.06,849.09 1673.19,852.73 1676.03,860.51 1675.63,867.87 1670.67,875.40 1661.67,878.79 1575.07,896.91"/>
        <lane id="-109161057#2_1" index="1" allow="vip" speed="83.33" length="125.85" shape="1666.88,852.30 1670.44,854.83 1672.70,861.00 1672.39,866.80 1668.51,872.69 1660.75,875.61 1574.39,893.68"/>
    </edge>
    <edge id="-109161057#3" from="1250408374" to="1250408533" priority="14" type="highway.raceway" shape="1466.39,892.25 1640.58,855.08 1659.98,851.47">
        <lane id="-109161057#3_0" index="0" allow="vip" speed="83.33" length="200.90" shape="1466.54,887.16 1639.61,850.23 1659.30,846.56"/>
        <lane id="-109161057#3_1" index="1" allow="vip" speed="83.33" length="200.90" shape="1467.23,890.39 1640.25,853.46 1659.91,849.81"/>
    </edge>
    <edge id="-109161058#0" from="1250408381" to="1250408215" priority="2" type="highway.service" shape="1764.00,367.10 1849.86,343.48 1989.63,314.11 2208.17,266.79">
        <lane id="-109161058#0_0" index="0" allow="delivery bicycle pedestrian" speed="5.56" length="455.48" shape="1767.70,364.37 1849.47,341.88 1989.29,312.50 2207.82,265.18"/>
    </edge>
    <edge id="-109161058#1" from="2850944483" to="1250408381" priority="2" type="highway.service">
        <lane id="-109161058#1_0" index="0" allow="delivery bicycle pedestrian" speed="5.56" length="141.20" shape="1625.42,394.28 1758.71,366.51"/>
    </edge>
    <edge id="-109161059#0" from="4038612519" to="1250408478" priority="2" type="highway.service">
        <lane id="-109161059#0_0" index="0" allow="delivery bicycle pedestrian" speed="5.56" length="20.32" shape="1090.86,713.93 1078.12,716.70"/>
    </edge>
    <edge id="-109161059#1" from="1250408659" to="4038612519" priority="2" type="highway.service">
        <lane id="-109161059#1_0" index="0" allow="delivery bicycle pedestrian" speed="5.56" length="371.89" shape="1457.10,636.12 1095.80,712.87"/>
    </edge>
    <edge id="-109161060" from="1250408210" to="3657851746" priority="2" type="highway.service" shape="2001.83,729.30 2296.78,667.35 2314.20,660.09 2534.95,614.27 2680.05,585.11 2684.30,522.59 2667.03,443.88 2661.48,410.71 2668.77,400.51 2687.57,392.47 2684.51,369.90 2648.20,197.70 2642.80,188.67 2634.52,180.05 2612.51,154.94 2600.55,145.77 2581.14,140.20 2541.72,146.02 2234.49,209.89 2215.06,206.83 2195.25,202.39">
        <lane id="-109161060_0" index="0" allow="delivery bicycle pedestrian" speed="5.56" length="1587.07" shape="2001.49,727.68 2296.29,665.77 2313.71,658.51 2534.62,612.65 2678.49,583.74 2682.64,522.71 2665.41,444.19 2659.74,410.31 2667.69,399.18 2685.77,391.44 2682.88,370.18 2646.64,198.31 2641.48,189.68 2633.30,181.17 2611.37,156.15 2599.80,147.27 2581.03,141.89 2542.01,147.64 2234.53,211.56 2214.75,208.45 2194.89,204.00"/>
    </edge>
    <edge id="-114200447#0" from="4046105820" to="1294816773" priority="2" type="highway.service">
        <lane id="-114200447#0_0" index="0" allow="delivery bicycle pedestrian" speed="13.89" length="19.95" shape="1298.93,1497.22 1303.31,1481.00"/>
    </edge>
    <edge id="-114200447#1" from="281066921" to="4046105820" priority="2" type="highway.service" shape="1293.10,1512.67 1297.40,1509.27 1299.71,1500.69">
        <lane id="-114200447#1_0" index="0" allow="delivery bicycle pedestrian" speed="13.89" length="14.36" shape="1294.69,1509.31 1295.94,1508.32 1296.97,1504.51"/>
    </edge>
    <edge id="-158931312#0" from="656209845" to="1710480364" priority="4" type="highway.residential">
        <lane id="-158931312#0_0" index="0" disallow="tram rail_urban rail rail_electric ship" speed="13.89" length="71.35" shape="977.63,753.46 992.07,816.96"/>
    </edge>
    <edge id="-158931312#1" from="5010080452" to="656209845" priority="4" type="highway.residential">
        <lane id="-158931312#1_0" index="0" disallow="tram rail_urban rail rail_electric ship" speed="13.89" length="183.11" shape="937.83,572.23 975.57,744.23"/>
    </edge>
    <edge id="-158931312#2" from="293886301" to="5010080452" priority="4" type="highway.residential">
        <lane id="-158931312#2_0" index="0" disallow="tram rail_urban rail rail_electric ship" speed="13.89" length="28.11" shape="932.34,547.24 936.75,567.34"/>
    </edge>
    <edge id="-158933105#0" from="3540813411" to="1710488437" priority="1" type="highway.cycleway" shape="603.81,1405.26 590.83,1407.08 589.55,1407.37 403.06,1448.80 391.48,1451.37 359.75,1453.12 349.97,1453.83 267.29,1428.27 187.23,1402.62 180.33,1399.44 174.78,1395.65 157.25,1391.22 150.97,1388.99">
        <lane id="-158933105#0_0" index="0" allow="bicycle" speed="5.56" length="468.57" width="1.00" shape="601.47,1406.14 590.93,1407.62 589.67,1407.91 403.18,1449.34 391.56,1451.92 359.79,1453.67 349.91,1454.38 267.13,1428.79 187.03,1403.13 180.06,1399.92 174.55,1396.16 157.09,1391.75 150.78,1389.51"/>
    </edge>
    <edge id="-158933105#1" from="3381153402" to="3540813411" priority="1" type="highway.cycleway" shape="681.93,1384.58 676.93,1383.60 661.70,1383.56 653.17,1387.31 643.26,1397.35 611.92,1404.11 609.18,1404.49 603.81,1405.26">
        <lane id="-158933105#1_0" index="0" allow="bicycle" speed="5.56" length="84.01" width="1.00" shape="678.78,1384.52 676.88,1384.15 661.81,1384.11 653.48,1387.77 643.54,1397.86 612.02,1404.66 609.26,1405.04 606.42,1405.44"/>
    </edge>
    <edge id="-158933105#10" from="4043389999" to="3441565048" priority="1" type="highway.cycleway">
        <lane id="-158933105#10_0" index="0" allow="bicycle" speed="5.56" length="11.51" width="1.00" shape="1089.20,1294.19 1082.85,1295.65"/>
    </edge>
    <edge id="-158933105#2" from="3375647622" to="3381153402" priority="1" type="highway.cycleway">
        <lane id="-158933105#2_0" index="0" allow="bicycle" speed="5.56" length="4.53" width="1.00" shape="684.15,1385.58 683.97,1385.54"/>
    </edge>
    <edge id="-158933105#3" from="3441565057" to="3375647622" priority="1" type="highway.cycleway">
        <lane id="-158933105#3_0" index="0" allow="bicycle" speed="5.56" length="6.09" width="1.00" shape="690.68,1384.89 688.98,1385.34"/>
    </edge>
    <edge id="-158933105#4" from="2756529623" to="3441565057" priority="1" type="highway.cycleway">
        <lane id="-158933105#4_0" index="0" allow="bicycle" speed="5.56" length="48.82" width="1.00" shape="734.99,1373.29 696.67,1383.32"/>
    </edge>
    <edge id="-158933105#5" from="2756529621" to="2756529623" priority="1" type="highway.cycleway">
        <lane id="-158933105#5_0" index="0" allow="bicycle" speed="5.56" length="59.40" width="1.00" shape="792.97,1360.25 744.26,1371.04"/>
    </edge>
    <edge id="-158933105#6" from="2756529619" to="2756529621" priority="1" type="highway.cycleway">
        <lane id="-158933105#6_0" index="0" allow="bicycle" speed="5.56" length="58.24" width="1.00" shape="849.61,1346.70 802.25,1358.10"/>
    </edge>
    <edge id="-158933105#7" from="1710488407" to="2756529619" priority="1" type="highway.cycleway" shape="904.35,1332.98 887.75,1336.39 854.11,1345.06">
        <lane id="-158933105#7_0" index="0" allow="bicycle" speed="5.56" length="51.69" width="1.00" shape="901.38,1334.15 887.87,1336.93 858.89,1344.39"/>
    </edge>
    <edge id="-158933105#8" from="3426348950" to="1710488407" priority="1" type="highway.cycleway">
        <lane id="-158933105#8_0" index="0" allow="bicycle" speed="5.56" length="10.87" width="1.00" shape="912.56,1333.21 907.77,1333.40"/>
    </edge>
    <edge id="-158933105#9" from="3441565048" to="3426348950" priority="1" type="highway.cycleway">
        <lane id="-158933105#9_0" index="0" allow="bicycle" speed="5.56" length="169.14" width="1.00" shape="1077.98,1296.75 917.80,1332.54"/>
    </edge>
    <edge id="-159078154#0" from="1711786833" to="1711786836" priority="2" type="highway.service">
        <lane id="-159078154#0_0" index="0" allow="delivery bicycle pedestrian" speed="5.56" length="16.69" shape="904.51,1284.27 896.04,1286.14"/>
    </edge>
    <edge id="-159078154#1" from="3413365279" to="1711786833" priority="2" type="highway.service">
        <lane id="-159078154#1_0" index="0" allow="delivery bicycle pedestrian" speed="5.56" length="100.20" shape="1004.60,1262.20 915.64,1281.82"/>
    </edge>
    <edge id="-159078154#2" from="3413365272" to="3413365279" priority="2" type="highway.service">
        <lane id="-159078154#2_0" index="0" allow="delivery bicycle pedestrian" speed="5.56" length="75.75" shape="1078.24,1244.42 1009.57,1261.05"/>
    </edge>
    <edge id="-159078154#3" from="1711786829" to="3413365272" priority="2" type="highway.service">
        <lane id="-159078154#3_0" index="0" allow="delivery bicycle pedestrian" speed="5.56" length="4.92" shape="1082.16,1243.46 1081.96,1243.50"/>
    </edge>
    <edge id="-159078155#0" from="3414870686" to="1711786810" priority="2" type="highway.service" shape="886.43,1190.84 871.87,1132.00 857.33,1132.40">
        <lane id="-159078155#0_0" index="0" allow="delivery bicycle pedestrian" speed="5.56" length="75.16" shape="884.23,1188.80 870.59,1133.68 861.12,1133.95"/>
    </edge>
    <edge id="-159078155#1" from="1711786833" to="3414870686" priority="2" type="highway.service">
        <lane id="-159078155#1_0" index="0" allow="delivery bicycle pedestrian" speed="5.56" length="93.52" shape="905.92,1276.55 885.43,1193.66"/>
    </edge>
    <edge id="-159078160#0" from="4043389586" to="1711786803" priority="2" type="highway.service">
        <lane id="-159078160#0_0" index="0" allow="delivery bicycle pedestrian" speed="5.56" length="17.71" shape="1022.25,1029.72 1032.64,1027.48"/>
    </edge>
    <edge id="-159078160#1" from="1711786806" to="4043389586" priority="2" type="highway.service">
        <lane id="-159078160#1_0" index="0" allow="delivery bicycle pedestrian" speed="5.56" length="71.01" shape="955.55,1044.11 1017.36,1030.77"/>
    </edge>
    <edge id="-159078160#2" from="1711786807" to="1711786806" priority="2" type="highway.service">
        <lane id="-159078160#2_0" index="0" allow="delivery bicycle pedestrian" speed="5.56" length="110.48" shape="845.66,1067.82 946.23,1046.12"/>
    </edge>
    <edge id="-159078161#0" from="4043389587" to="1711786806" priority="2" type="highway.service" shape="1014.24,1006.06 1004.21,1008.46 994.30,1015.24 948.40,1024.95 950.93,1046.79">
        <lane id="-159078161#0_0" index="0" allow="delivery bicycle pedestrian" speed="5.56" length="91.23" shape="1012.26,1008.23 1004.89,1009.99 994.96,1016.79 950.21,1026.25 951.98,1041.55"/>
    </edge>
    <edge id="-159078161#1" from="1711786800" to="4043389587" priority="2" type="highway.service">
        <lane id="-159078161#1_0" index="0" allow="delivery bicycle pedestrian" speed="5.56" length="18.04" shape="1027.51,1004.59 1017.12,1007.07"/>
    </edge>
    <edge id="-159082557#0" from="3066325135" to="669781329" priority="1" type="highway.cycleway">
        <lane id="-159082557#0_0" index="0" allow="bicycle" speed="5.56" length="14.20" width="1.00" shape="1112.69,920.83 1105.96,922.25"/>
    </edge>
    <edge id="-159082557#1" from="3178653173" to="3066325135" priority="1" type="highway.cycleway">
        <lane id="-159082557#1_0" index="0" allow="bicycle" speed="5.56" length="12.22" width="1.00" shape="1124.63,918.31 1122.09,918.84"/>
    </edge>
    <edge id="-159082557#2" from="3391470090" to="3178653173" priority="1" type="highway.cycleway">
        <lane id="-159082557#2_0" index="0" allow="bicycle" speed="5.56" length="13.83" width="1.00" shape="1140.00,915.07 1134.03,916.33"/>
    </edge>
    <edge id="-159082559#0" from="2756529623" to="1711818334" priority="2" type="highway.service">
        <lane id="-159082559#0_0" index="0" allow="delivery bicycle pedestrian" speed="5.56" length="143.27" shape="737.35,1369.36 708.95,1236.40"/>
    </edge>
    <edge id="-159082559#1" from="1711818341" to="2756529623" priority="2" type="highway.service">
        <lane id="-159082559#1_0" index="0" allow="delivery bicycle pedestrian" speed="5.56" length="17.01" shape="740.44,1383.86 738.45,1374.52"/>
    </edge>
    <edge id="-159082560#0" from="2756529621" to="1711818340" priority="2" type="highway.service">
        <lane id="-159082560#0_0" index="0" allow="delivery bicycle pedestrian" speed="5.56" length="17.21" shape="799.65,1360.81 801.79,1370.47"/>
    </edge>
    <edge id="-159082560#1" from="1711818331" to="2756529621" priority="2" type="highway.service">
        <lane id="-159082560#1_0" index="0" allow="delivery bicycle pedestrian" speed="5.56" length="143.12" shape="769.13,1223.23 798.53,1355.78"/>
    </edge>
    <edge id="-159082561#0" from="3413365253" to="1711818303" priority="2" type="highway.service">
        <lane id="-159082561#0_0" index="0" allow="delivery bicycle pedestrian" speed="5.56" length="57.19" shape="727.12,1098.24 673.82,1110.42"/>
    </edge>
    <edge id="-159082561#1" from="1711786807" to="3413365253" priority="2" type="highway.service">
        <lane id="-159082561#1_0" index="0" allow="delivery bicycle pedestrian" speed="5.56" length="116.66" shape="840.29,1072.39 731.99,1097.13"/>
    </edge>
    <edge id="-159082562" from="1711818287" to="1711818290" priority="2" type="highway.service">
        <lane id="-159082562_0" index="0" allow="delivery bicycle pedestrian" speed="5.56" length="53.10" shape="1089.01,1025.67 1044.35,1036.08"/>
    </edge>
    <edge id="-159082563" from="1711818293" to="1711818296" priority="2" type="highway.service">
        <lane id="-159082563_0" index="0" allow="delivery bicycle pedestrian" speed="5.56" length="54.68" shape="1102.48,1079.73 1056.21,1089.20"/>
    </edge>
    <edge id="-159082565#0" from="3413365266" to="1711818327" priority="2" type="highway.service" shape="818.94,1162.54 816.72,1168.82 824.26,1205.56">