<?xml version="1.0" encoding="UTF-8"?>

<net version="0.13" xmlns:xsi="http://www.w3.org/2001/XMLSchema-instance" xsi:noNamespaceSchemaLocation="http://sumo-sim.org/xsd/net_file.xsd">
    <location netOffset="0.0,0.0" convBoundary="0.00,0.00,665.37,811.53" origBoundary="14.388600,50.068250,14.516399,50.128835" projParameter="+proj=utm +zone=33 +ellps=WGS84 +datum=WGS84 +units=m +no_defs"/>
    <edge id="0#0" from="0" to="1" priority="7" type="highway.secondary" shape="0,0 1,1">
        <lane id="0#0_0" index="0" speed="42" length="16.72"   shape="0.0,-100.0    0.0,0.0"/>
    </edge>
    <edge id="0#1" from="0" to="1" priority="7" type="highway.secondary" shape="0,0 1,1">
        <lane id="0#1_0" index="0" speed="42" length="16.72"   shape="4.0,-100.0   4.0,0.0"/>
    </edge>
    <edge id="0#2" from="0" to="1" priority="7" type="highway.secondary" shape="0,0 1,1">
        <lane id="0#2_0" index="0" speed="42" length="16.72"   shape="8.0,-100.0   8.0,0.0"/>
    </edge>
    <edge id="0#3" from="0" to="1" priority="7" type="highway.secondary" shape="0,0 1,1">
        <lane id="0#3_0" index="0" speed="42" length="16.72"   shape="12.0,-100.0   12.0,0.0"/>
    </edge>
    <edge id="0#4" from="0" to="1" priority="7" type="highway.secondary" shape="0,0 1,1">
        <lane id="0#4_0" index="0" speed="42" length="16.72"   shape="16.0,-100.0   16.0,0.0"/>
    </edge>
    <edge id="0#5" from="0" to="1" priority="7" type="highway.secondary" shape="0,0 1,1">
        <lane id="0#5_0" index="0" speed="42" length="16.72"   shape="20.0,-100.0  20.0,0.0"/>
    </edge>
    <edge id="0#6" from="0" to="1" priority="7" type="highway.secondary" shape="0,0 1,1">
        <lane id="0#6_0" index="0" speed="42" length="16.72"   shape="24.0,-100.0  24.0,0.0"/>
    </edge>
    <edge id="0#7" from="0" to="1" priority="7" type="highway.secondary" shape="0,0 1,1">
        <lane id="0#7_0" index="0" speed="42" length="16.72"   shape="28.0,-100.0  28.0,0.0"/>
    </edge>
    <edge id="0#8" from="0" to="1" priority="7" type="highway.secondary" shape="0,0 1,1">
        <lane id="0#8_0" index="0" speed="42" length="16.72"   shape="32.0,-100.0  32.0,0.0"/>
    </edge>
    <edge id="0#9" from="0" to="1" priority="7" type="highway.secondary" shape="0,0 1,1">
        <lane id="0#9_0" index="0" speed="42" length="16.72"   shape="36.0,-100.0  36.0,0.0"/>
    </edge>
    <edge id="0#10" from="0" to="1" priority="7" type="highway.secondary" shape="0,0 1,1">
        <lane id="0#10_0" index="0" speed="42" length="16.72"   shape="40.0,-100.0  40.0,0.0"/>
    </edge>
    <edge id="0#11" from="0" to="1" priority="7" type="highway.secondary" shape="0,0 1,1">
        <lane id="0#11_0" index="0" speed="42" length="16.72"   shape="44.0,-100.0  44.0,0.0"/>
    </edge>
    <edge id="0#12" from="0" to="1" priority="7" type="highway.secondary" shape="0,0 1,1">
        <lane id="0#12_0" index="0" speed="42" length="16.72"   shape="48.0,-100.0  48.0,0.0"/>
    </edge>
    <edge id="0#13" from="0" to="1" priority="7" type="highway.secondary" shape="0,0 1,1">
        <lane id="0#13_0" index="0" speed="42" length="16.72"   shape="52.0,-100.0  52.0,0.0"/>
    </edge>
    <edge id="0#14" from="0" to="1" priority="7" type="highway.secondary" shape="0,0 1,1">
        <lane id="0#14_0" index="0" speed="42" length="16.72"   shape="56.0,-100.0  56.0,0.0"/>
    </edge>
    <edge id="0#15" from="0" to="1" priority="7" type="highway.secondary" shape="0,0 1,1">
        <lane id="0#15_0" index="0" speed="42" length="16.72"   shape="60.0,-100.0  60.0,0.0"/>
    </edge>
    <edge id="0#16" from="0" to="1" priority="7" type="highway.secondary" shape="0,0 1,1">
        <lane id="0#16_0" index="0" speed="42" length="16.72"   shape="64.0,-100.0  64.0,0.0"/>
    </edge>
    <edge id="0#17" from="0" to="1" priority="7" type="highway.secondary" shape="0,0 1,1">
        <lane id="0#17_0" index="0" speed="42" length="16.72"   shape="68.0,-100.0  68.0,0.0"/>
    </edge>
    <edge id="0#18" from="0" to="1" priority="7" type="highway.secondary" shape="0,0 1,1">
        <lane id="0#18_0" index="0" speed="42" length="16.72"   shape="72.0,-100.0  72.0,0.0"/>
    </edge>
    <edge id="0#19" from="0" to="1" priority="7" type="highway.secondary" shape="0,0 1,1">
        <lane id="0#19_0" index="0" speed="42" length="16.72"   shape="76.0,-100.0  76.0,0.0"/>
    </edge>
    <edge id="0#20" from="0" to="1" priority="7" type="highway.secondary" shape="0,0 1,1">
        <lane id="0#20_0" index="0" speed="42" length="16.72"   shape="80.0,-100.0  80.0,0.0"/>
    </edge>
    <edge id="0#21" from="0" to="1" priority="7" type="highway.secondary" shape="0,0 1,1">
        <lane id="0#21_0" index="0" speed="42" length="16.72"   shape="84.0,-100.0  84.0,0.0"/>
    </edge>
    <edge id="0#22" from="0" to="1" priority="7" type="highway.secondary" shape="0,0 1,1">
        <lane id="0#22_0" index="0" speed="42" length="16.72"   shape="88.0,-100.0  88.0,0.0"/>
    </edge>
    <edge id="0#23" from="0" to="1" priority="7" type="highway.secondary" shape="0,0 1,1">
        <lane id="0#23_0" index="0" speed="42" length="16.72"   shape="92.0,-100.0  92.0,0.0"/>
    </edge>
    <edge id="0#24" from="0" to="1" priority="7" type="highway.secondary" shape="0,0 1,1">
        <lane id="0#24_0" index="0" speed="42" length="16.72"   shape="96.0,-100.0  96.0,0.0"/>
    </edge>
    <edge id="0" from="0" to="1" priority="7" type="highway.secondary" shape="0,0 1,1">
        <lane id="0_0" index="0" speed="42" length="16.72"   shape=" 0.0,0.0  0.0,100.0"/>
        <lane id="0_1" index="1" speed="42" length="16.72"   shape=" 4.0,0.0  4.0,100.0"/>
        <lane id="0_2" index="2" speed="42" length="16.72"   shape=" 8.0,0.0  8.0,100.0"/>
        <lane id="0_3" index="3" speed="42" length="16.72"   shape="12.0,0.0 12.0,100.0"/>
        <lane id="0_4" index="4" speed="42" length="16.72"   shape="16.0,0.0 16.0,100.0"/>
        <lane id="0_5" index="5" speed="42" length="16.72"   shape="20.0,0.0 20.0,100.0"/>
        <lane id="0_6" index="6" speed="42" length="16.72"   shape="24.0,0.0 24.0,100.0"/>
        <lane id="0_7" index="7" speed="42" length="16.72"   shape="28.0,0.0 28.0,100.0"/>
        <lane id="0_8" index="8" speed="42" length="16.72"   shape="32.0,0.0 32.0,100.0"/>
        <lane id="0_9" index="9" speed="42" length="16.72"   shape="36.0,0.0 36.0,100.0"/>
        <lane id="0_10" index="10" speed="42" length="16.72" shape="40.0,0.0 40.0,100.0"/>
        <lane id="0_11" index="11" speed="42" length="16.72" shape="44.0,0.0 44.0,100.0"/>
        <lane id="0_12" index="12" speed="42" length="16.72" shape="48.0,0.0 48.0,100.0"/>
        <lane id="0_13" index="13" speed="42" length="16.72" shape="52.0,0.0 52.0,100.0"/>
        <lane id="0_14" index="14" speed="42" length="16.72" shape="56.0,0.0 56.0,100.0"/>
        <lane id="0_15" index="15" speed="42" length="16.72" shape="60.0,0.0 60.0,100.0"/>
        <lane id="0_16" index="16" speed="42" length="16.72" shape="64.0,0.0 64.0,100.0"/>
        <lane id="0_17" index="17" speed="42" length="16.72" shape="68.0,0.0 68.0,100.0"/>
        <lane id="0_18" index="18" speed="42" length="16.72" shape="72.0,0.0 72.0,100.0"/>
        <lane id="0_19" index="19" speed="42" length="16.72" shape="76.0,0.0 76.0,100.0"/>
        <lane id="0_20" index="20" speed="42" length="16.72" shape="80.0,0.0 80.0,100.0"/>
        <lane id="0_21" index="21" speed="42" length="16.72" shape="84.0,0.0 84.0,100.0"/>
        <lane id="0_22" index="22" speed="42" length="16.72" shape="88.0,0.0 88.0,100.0"/>
        <lane id="0_23" index="23" speed="42" length="16.72" shape="92.0,0.0 92.0,100.0"/>
        <lane id="0_24" index="24" speed="42" length="16.72" shape="96.0,0.0 96.0,100.0"/>
    </edge>
    <edge id="1" from="1" to="2" priority="7" type="highway.secondary" shape="0,0 1,1">
        <lane id="1_0" index="0" speed="42" length="16.72" shape="42,100 42,350"/>
    </edge>
    <connection from="0" to="1" fromLane="11" toLane="0" dir="s" state="M"/>
    <connection from="0#0" to="0" fromLane="0" toLane="0" dir="s" state="M"/>
    <connection from="0#1" to="0" fromLane="0" toLane="1" dir="s" state="M"/>
    <connection from="0#2" to="0" fromLane="0" toLane="2" dir="s" state="M"/>
    <connection from="0#3" to="0" fromLane="0" toLane="3" dir="s" state="M"/>
    <connection from="0#3" to="0" fromLane="0" toLane="3" dir="s" state="M"/>
    <connection from="0#4" to="0" fromLane="0" toLane="4" dir="s" state="M"/>
    <connection from="0#4" to="0" fromLane="0" toLane="4" dir="s" state="M"/>
    <connection from="0#5" to="0" fromLane="0" toLane="5" dir="s" state="M"/>
    <connection from="0#5" to="0" fromLane="0" toLane="5" dir="s" state="M"/>
    <connection from="0#6" to="0" fromLane="0" toLane="6" dir="s" state="M"/>
    <connection from="0#6" to="0" fromLane="0" toLane="6" dir="s" state="M"/>
    <connection from="0#7" to="0" fromLane="0" toLane="7" dir="s" state="M"/>
    <connection from="0#7" to="0" fromLane="0" toLane="7" dir="s" state="M"/>
    <connection from="0#8" to="0" fromLane="0" toLane="8" dir="s" state="M"/>
    <connection from="0#8" to="0" fromLane="0" toLane="8" dir="s" state="M"/>
    <connection from="0#9" to="0" fromLane="0" toLane="9" dir="s" state="M"/>
    <connection from="0#9" to="0" fromLane="0" toLane="9" dir="s" state="M"/>
    <connection from="0#10" to="0" fromLane="0" toLane="10" dir="s" state="M"/>
    <connection from="0#10" to="0" fromLane="0" toLane="10" dir="s" state="M"/>
    <connection from="0#11" to="0" fromLane="0" toLane="11" dir="s" state="M"/>
    <connection from="0#11" to="0" fromLane="0" toLane="11" dir="s" state="M"/>
    <connection from="0#12" to="0" fromLane="0" toLane="12" dir="s" state="M"/>
    <connection from="0#12" to="0" fromLane="0" toLane="12" dir="s" state="M"/>
    <connection from="0#13" to="0" fromLane="0" toLane="13" dir="s" state="M"/>
    <connection from="0#13" to="0" fromLane="0" toLane="13" dir="s" state="M"/>
    <connection from="0#14" to="0" fromLane="0" toLane="14" dir="s" state="M"/>
    <connection from="0#14" to="0" fromLane="0" toLane="14" dir="s" state="M"/>
    <connection from="0#15" to="0" fromLane="0" toLane="15" dir="s" state="M"/>
    <connection from="0#15" to="0" fromLane="0" toLane="15" dir="s" state="M"/>
    <connection from="0#16" to="0" fromLane="0" toLane="16" dir="s" state="M"/>
    <connection from="0#16" to="0" fromLane="0" toLane="16" dir="s" state="M"/>
    <connection from="0#17" to="0" fromLane="0" toLane="17" dir="s" state="M"/>
    <connection from="0#17" to="0" fromLane="0" toLane="17" dir="s" state="M"/>
    <connection from="0#18" to="0" fromLane="0" toLane="18" dir="s" state="M"/>
    <connection from="0#18" to="0" fromLane="0" toLane="18" dir="s" state="M"/>
    <connection from="0#19" to="0" fromLane="0" toLane="19" dir="s" state="M"/>
    <connection from="0#19" to="0" fromLane="0" toLane="19" dir="s" state="M"/>
    <connection from="0#20" to="0" fromLane="0" toLane="20" dir="s" state="M"/>
    <connection from="0#20" to="0" fromLane="0" toLane="20" dir="s" state="M"/>
    <connection from="0#21" to="0" fromLane="0" toLane="21" dir="s" state="M"/>
    <connection from="0#21" to="0" fromLane="0" toLane="21" dir="s" state="M"/>
    <connection from="0#22" to="0" fromLane="0" toLane="22" dir="s" state="M"/>
    <connection from="0#22" to="0" fromLane="0" toLane="22" dir="s" state="M"/>
    <connection from="0#23" to="0" fromLane="0" toLane="23" dir="s" state="M"/>
    <connection from="0#23" to="0" fromLane="0" toLane="23" dir="s" state="M"/>
    <connection from="0#24" to="0" fromLane="0" toLane="24" dir="s" state="M"/>
    <connection from="0#24" to="0" fromLane="0" toLane="24" dir="s" state="M"/>
</net>
