<?xml version="1.0" encoding="UTF-8"?>

<!-- generated on Sat May  2 15:02:41 2015 by SUMO duarouter Version 0.21.0
<?xml version="1.0" encoding="UTF-8"?>

<configuration xmlns:xsi="http://www.w3.org/2001/XMLSchema-instance" xsi:noNamespaceSchemaLocation="http://sumo-sim.org/xsd/duarouterConfiguration.xsd">

    <input>
        <net-file value="T-junction.net.xml"/>
        <flow-files value="T-junction.flows.xml"/>
    </input>

    <output>
        <output-file value="T-junction.rou.xml"/>
    </output>

    <processing>
        <ignore-errors value="true"/>
        <routing-algorithm value="astar"/>
    </processing>

    <report>
        <no-warnings value="true"/>
    </report>

</configuration>
-->

<routes xmlns:xsi="http://www.w3.org/2001/XMLSchema-instance" xsi:noNamespaceSchemaLocation="http://sumo-sim.org/xsd/routes_file.xsd">
    <vehicle id="1" depart="0.00">
        <route edges="7 1"/>
    </vehicle>
    <vehicle id="2" depart="0.00">
        <route edges="5 3"/>
    </vehicle>
    <vehicle id="3" depart="0.00">
        <route edges="0 1"/>
    </vehicle>
    <vehicle id="4" depart="0.00">
        <route edges="0 3"/>
    </vehicle>
    <vehicle id="5" depart="0.00">
        <route edges="7 4"/>
    </vehicle>
    <vehicle id="6" depart="0.00">
        <route edges="5 4"/>
    </vehicle>
    <vehicle id="7" depart="5.14">
        <route edges="7 1"/>
    </vehicle>
    <vehicle id="8" depart="5.14">
        <route edges="5 3"/>
    </vehicle>
    <vehicle id="9" depart="10.28">
        <route edges="7 1"/>
    </vehicle>
    <vehicle id="10" depart="10.28">
        <route edges="5 3"/>
    </vehicle>
    <vehicle id="11" depart="15.43">
        <route edges="7 1"/>
    </vehicle>
    <vehicle id="12" depart="15.43">
        <route edges="5 3"/>
    </vehicle>
    <vehicle id="13" depart="15.65">
        <route edges="0 1"/>
    </vehicle>
    <vehicle id="14" depart="18.00">
        <route edges="0 3"/>
    </vehicle>
    <vehicle id="15" depart="18.00">
        <route edges="7 4"/>
    </vehicle>
    <vehicle id="16" depart="18.00">
        <route edges="5 4"/>
    </vehicle>
    <vehicle id="17" depart="20.57">
        <route edges="7 1"/>
    </vehicle>
    <vehicle id="18" depart="20.57">
        <route edges="5 3"/>
    </vehicle>
    <vehicle id="19" depart="25.71">
        <route edges="7 1"/>
    </vehicle>
    <vehicle id="20" depart="25.71">
        <route edges="5 3"/>
    </vehicle>
    <vehicle id="21" depart="30.85">
        <route edges="7 1"/>
    </vehicle>
    <vehicle id="22" depart="30.85">
        <route edges="5 3"/>
    </vehicle>
    <vehicle id="23" depart="31.30">
        <route edges="0 1"/>
    </vehicle>
    <vehicle id="24" depart="35.99">
        <route edges="7 1"/>
    </vehicle>
    <vehicle id="25" depart="35.99">
        <route edges="5 3"/>
    </vehicle>
    <vehicle id="26" depart="36.00">
        <route edges="0 3"/>
    </vehicle>
    <vehicle id="27" depart="36.00">
        <route edges="7 4"/>
    </vehicle>
    <vehicle id="28" depart="36.00">
        <route edges="5 4"/>
    </vehicle>
    <vehicle id="29" depart="41.14">
        <route edges="7 1"/>
    </vehicle>
    <vehicle id="30" depart="41.14">
        <route edges="5 3"/>
    </vehicle>
    <vehicle id="31" depart="46.28">
        <route edges="7 1"/>
    </vehicle>
    <vehicle id="32" depart="46.28">
        <route edges="5 3"/>
    </vehicle>
    <vehicle id="33" depart="46.96">
        <route edges="0 1"/>
    </vehicle>
    <vehicle id="34" depart="51.42">
        <route edges="7 1"/>
    </vehicle>
    <vehicle id="35" depart="51.42">
        <route edges="5 3"/>
    </vehicle>
    <vehicle id="36" depart="54.00">
        <route edges="0 3"/>
    </vehicle>
    <vehicle id="37" depart="54.00">
        <route edges="7 4"/>
    </vehicle>
    <vehicle id="38" depart="54.00">
        <route edges="5 4"/>
    </vehicle>
    <vehicle id="39" depart="56.56">
        <route edges="7 1"/>
    </vehicle>
    <vehicle id="40" depart="56.56">
        <route edges="5 3"/>
    </vehicle>
    <vehicle id="41" depart="61.70">
        <route edges="7 1"/>
    </vehicle>
    <vehicle id="42" depart="61.70">
        <route edges="5 3"/>
    </vehicle>
    <vehicle id="43" depart="62.61">
        <route edges="0 1"/>
    </vehicle>
    <vehicle id="44" depart="66.85">
        <route edges="7 1"/>
    </vehicle>
    <vehicle id="45" depart="66.85">
        <route edges="5 3"/>
    </vehicle>
    <vehicle id="46" depart="71.99">
        <route edges="7 1"/>
    </vehicle>
    <vehicle id="47" depart="71.99">
        <route edges="5 3"/>
    </vehicle>
    <vehicle id="48" depart="72.00">
        <route edges="0 3"/>
    </vehicle>
    <vehicle id="49" depart="72.00">
        <route edges="7 4"/>
    </vehicle>
    <vehicle id="50" depart="72.00">
        <route edges="5 4"/>
    </vehicle>
    <vehicle id="51" depart="77.13">
        <route edges="7 1"/>
    </vehicle>
    <vehicle id="52" depart="77.13">
        <route edges="5 3"/>
    </vehicle>
    <vehicle id="53" depart="78.26">
        <route edges="0 1"/>
    </vehicle>
    <vehicle id="54" depart="82.27">
        <route edges="7 1"/>
    </vehicle>
    <vehicle id="55" depart="82.27">
        <route edges="5 3"/>
    </vehicle>
    <vehicle id="56" depart="87.41">
        <route edges="7 1"/>
    </vehicle>
    <vehicle id="57" depart="87.41">
        <route edges="5 3"/>
    </vehicle>
    <vehicle id="58" depart="90.00">
        <route edges="0 3"/>
    </vehicle>
    <vehicle id="59" depart="90.00">
        <route edges="7 4"/>
    </vehicle>
    <vehicle id="60" depart="90.00">
        <route edges="5 4"/>
    </vehicle>
    <vehicle id="61" depart="92.56">
        <route edges="7 1"/>
    </vehicle>
    <vehicle id="62" depart="92.56">
        <route edges="5 3"/>
    </vehicle>
    <vehicle id="63" depart="93.91">
        <route edges="0 1"/>
    </vehicle>
    <vehicle id="64" depart="97.70">
        <route edges="7 1"/>
    </vehicle>
    <vehicle id="65" depart="97.70">
        <route edges="5 3"/>
    </vehicle>
    <vehicle id="66" depart="102.84">
        <route edges="7 1"/>
    </vehicle>
    <vehicle id="67" depart="102.84">
        <route edges="5 3"/>
    </vehicle>
    <vehicle id="68" depart="107.98">
        <route edges="7 1"/>
    </vehicle>
    <vehicle id="69" depart="107.98">
        <route edges="5 3"/>
    </vehicle>
    <vehicle id="70" depart="108.00">
        <route edges="0 3"/>
    </vehicle>
    <vehicle id="71" depart="108.00">
        <route edges="7 4"/>
    </vehicle>
    <vehicle id="72" depart="108.00">
        <route edges="5 4"/>
    </vehicle>
    <vehicle id="73" depart="109.56">
        <route edges="0 1"/>
    </vehicle>
    <vehicle id="74" depart="113.12">
        <route edges="7 1"/>
    </vehicle>
    <vehicle id="75" depart="113.12">
        <route edges="5 3"/>
    </vehicle>
    <vehicle id="76" depart="118.27">
        <route edges="7 1"/>
    </vehicle>
    <vehicle id="77" depart="118.27">
        <route edges="5 3"/>
    </vehicle>
    <vehicle id="78" depart="123.41">
        <route edges="7 1"/>
    </vehicle>
    <vehicle id="79" depart="123.41">
        <route edges="5 3"/>
    </vehicle>
    <vehicle id="80" depart="125.22">
        <route edges="0 1"/>
    </vehicle>
    <vehicle id="81" depart="126.00">
        <route edges="0 3"/>
    </vehicle>
    <vehicle id="82" depart="126.00">
        <route edges="7 4"/>
    </vehicle>
    <vehicle id="83" depart="126.00">
        <route edges="5 4"/>
    </vehicle>
    <vehicle id="84" depart="128.55">
        <route edges="7 1"/>
    </vehicle>
    <vehicle id="85" depart="128.55">
        <route edges="5 3"/>
    </vehicle>
    <vehicle id="86" depart="133.69">
        <route edges="7 1"/>
    </vehicle>
    <vehicle id="87" depart="133.69">
        <route edges="5 3"/>
    </vehicle>
    <vehicle id="88" depart="138.83">
        <route edges="7 1"/>
    </vehicle>
    <vehicle id="89" depart="138.83">
        <route edges="5 3"/>
    </vehicle>
    <vehicle id="90" depart="140.87">
        <route edges="0 1"/>
    </vehicle>
    <vehicle id="91" depart="143.98">
        <route edges="7 1"/>
    </vehicle>
    <vehicle id="92" depart="143.98">
        <route edges="5 3"/>
    </vehicle>
    <vehicle id="93" depart="144.00">
        <route edges="0 3"/>
    </vehicle>
    <vehicle id="94" depart="144.00">
        <route edges="7 4"/>
    </vehicle>
    <vehicle id="95" depart="144.00">
        <route edges="5 4"/>
    </vehicle>
    <vehicle id="96" depart="149.12">
        <route edges="7 1"/>
    </vehicle>
    <vehicle id="97" depart="149.12">
        <route edges="5 3"/>
    </vehicle>
    <vehicle id="98" depart="154.26">
        <route edges="7 1"/>
    </vehicle>
    <vehicle id="99" depart="154.26">
        <route edges="5 3"/>
    </vehicle>
    <vehicle id="100" depart="156.52">
        <route edges="0 1"/>
    </vehicle>
    <vehicle id="101" depart="159.40">
        <route edges="7 1"/>
    </vehicle>
    <vehicle id="102" depart="159.40">
        <route edges="5 3"/>
    </vehicle>
    <vehicle id="103" depart="162.00">
        <route edges="0 3"/>
    </vehicle>
    <vehicle id="104" depart="162.00">
        <route edges="7 4"/>
    </vehicle>
    <vehicle id="105" depart="162.00">
        <route edges="5 4"/>
    </vehicle>
    <vehicle id="106" depart="164.54">
        <route edges="7 1"/>
    </vehicle>
    <vehicle id="107" depart="164.54">
        <route edges="5 3"/>
    </vehicle>
    <vehicle id="108" depart="169.69">
        <route edges="7 1"/>
    </vehicle>
    <vehicle id="109" depart="169.69">
        <route edges="5 3"/>
    </vehicle>
    <vehicle id="110" depart="172.17">
        <route edges="0 1"/>
    </vehicle>
    <vehicle id="111" depart="174.83">
        <route edges="7 1"/>
    </vehicle>
    <vehicle id="112" depart="174.83">
        <route edges="5 3"/>
    </vehicle>
    <vehicle id="113" depart="179.97">
        <route edges="7 1"/>
    </vehicle>
    <vehicle id="114" depart="179.97">
        <route edges="5 3"/>
    </vehicle>
    <vehicle id="115" depart="180.00">
        <route edges="0 3"/>
    </vehicle>
    <vehicle id="116" depart="180.00">
        <route edges="7 4"/>
    </vehicle>
    <vehicle id="117" depart="180.00">
        <route edges="5 4"/>
    </vehicle>
    <vehicle id="118" depart="185.11">
        <route edges="7 1"/>
    </vehicle>
    <vehicle id="119" depart="185.11">
        <route edges="5 3"/>
    </vehicle>
    <vehicle id="120" depart="187.82">
        <route edges="0 1"/>
    </vehicle>
    <vehicle id="121" depart="190.25">
        <route edges="7 1"/>
    </vehicle>
    <vehicle id="122" depart="190.25">
        <route edges="5 3"/>
    </vehicle>
    <vehicle id="123" depart="195.40">
        <route edges="7 1"/>
    </vehicle>
    <vehicle id="124" depart="195.40">
        <route edges="5 3"/>
    </vehicle>
    <vehicle id="125" depart="198.00">
        <route edges="0 3"/>
    </vehicle>
    <vehicle id="126" depart="198.00">
        <route edges="7 4"/>
    </vehicle>
    <vehicle id="127" depart="198.00">
        <route edges="5 4"/>
    </vehicle>
    <vehicle id="128" depart="200.54">
        <route edges="7 1"/>
    </vehicle>
    <vehicle id="129" depart="200.54">
        <route edges="5 3"/>
    </vehicle>
    <vehicle id="130" depart="203.48">
        <route edges="0 1"/>
    </vehicle>
    <vehicle id="131" depart="205.68">
        <route edges="7 1"/>
    </vehicle>
    <vehicle id="132" depart="205.68">
        <route edges="5 3"/>
    </vehicle>
    <vehicle id="133" depart="210.82">
        <route edges="7 1"/>
    </vehicle>
    <vehicle id="134" depart="210.82">
        <route edges="5 3"/>
    </vehicle>
    <vehicle id="135" depart="215.96">
        <route edges="7 1"/>
    </vehicle>
    <vehicle id="136" depart="215.96">
        <route edges="5 3"/>
    </vehicle>
    <vehicle id="137" depart="216.00">
        <route edges="0 3"/>
    </vehicle>
    <vehicle id="138" depart="216.00">
        <route edges="7 4"/>
    </vehicle>
    <vehicle id="139" depart="216.00">
        <route edges="5 4"/>
    </vehicle>
    <vehicle id="140" depart="219.13">
        <route edges="0 1"/>
    </vehicle>
    <vehicle id="141" depart="221.11">
        <route edges="7 1"/>
    </vehicle>
    <vehicle id="142" depart="221.11">
        <route edges="5 3"/>
    </vehicle>
    <vehicle id="143" depart="226.25">
        <route edges="7 1"/>
    </vehicle>
    <vehicle id="144" depart="226.25">
        <route edges="5 3"/>
    </vehicle>
    <vehicle id="145" depart="231.39">
        <route edges="7 1"/>
    </vehicle>
    <vehicle id="146" depart="231.39">
        <route edges="5 3"/>
    </vehicle>
    <vehicle id="147" depart="234.00">
        <route edges="0 3"/>
    </vehicle>
    <vehicle id="148" depart="234.00">
        <route edges="7 4"/>
    </vehicle>
    <vehicle id="149" depart="234.00">
        <route edges="5 4"/>
    </vehicle>
    <vehicle id="150" depart="234.78">
        <route edges="0 1"/>
    </vehicle>
    <vehicle id="151" depart="236.53">
        <route edges="7 1"/>
    </vehicle>
    <vehicle id="152" depart="236.53">
        <route edges="5 3"/>
    </vehicle>
    <vehicle id="153" depart="241.67">
        <route edges="7 1"/>
    </vehicle>
    <vehicle id="154" depart="241.67">
        <route edges="5 3"/>
    </vehicle>
    <vehicle id="155" depart="246.82">
        <route edges="7 1"/>
    </vehicle>
    <vehicle id="156" depart="246.82">
        <route edges="5 3"/>
    </vehicle>
    <vehicle id="157" depart="250.43">
        <route edges="0 1"/>
    </vehicle>
    <vehicle id="158" depart="251.96">
        <route edges="7 1"/>
    </vehicle>
    <vehicle id="159" depart="251.96">
        <route edges="5 3"/>
    </vehicle>
    <vehicle id="160" depart="252.00">
        <route edges="0 3"/>
    </vehicle>
    <vehicle id="161" depart="252.00">
        <route edges="7 4"/>
    </vehicle>
    <vehicle id="162" depart="252.00">
        <route edges="5 4"/>
    </vehicle>
    <vehicle id="163" depart="257.10">
        <route edges="7 1"/>
    </vehicle>
    <vehicle id="164" depart="257.10">
        <route edges="5 3"/>
    </vehicle>
    <vehicle id="165" depart="262.24">
        <route edges="7 1"/>
    </vehicle>
    <vehicle id="166" depart="262.24">
        <route edges="5 3"/>
    </vehicle>
    <vehicle id="167" depart="266.08">
        <route edges="0 1"/>
    </vehicle>
    <vehicle id="168" depart="267.38">
        <route edges="7 1"/>
    </vehicle>
    <vehicle id="169" depart="267.38">
        <route edges="5 3"/>
    </vehicle>
    <vehicle id="170" depart="270.00">
        <route edges="0 3"/>
    </vehicle>
    <vehicle id="171" depart="270.00">
        <route edges="7 4"/>
    </vehicle>
    <vehicle id="172" depart="270.00">
        <route edges="5 4"/>
    </vehicle>
    <vehicle id="173" depart="272.53">
        <route edges="7 1"/>
    </vehicle>
    <vehicle id="174" depart="272.53">
        <route edges="5 3"/>
    </vehicle>
    <vehicle id="175" depart="277.67">
        <route edges="7 1"/>
    </vehicle>
    <vehicle id="176" depart="277.67">
        <route edges="5 3"/>
    </vehicle>
    <vehicle id="177" depart="281.74">
        <route edges="0 1"/>
    </vehicle>
    <vehicle id="178" depart="282.81">
        <route edges="7 1"/>
    </vehicle>
    <vehicle id="179" depart="282.81">
        <route edges="5 3"/>
    </vehicle>
    <vehicle id="180" depart="287.95">
        <route edges="7 1"/>
    </vehicle>
    <vehicle id="181" depart="287.95">
        <route edges="5 3"/>
    </vehicle>
    <vehicle id="182" depart="288.00">
        <route edges="0 3"/>
    </vehicle>
    <vehicle id="183" depart="288.00">
        <route edges="7 4"/>
    </vehicle>
    <vehicle id="184" depart="288.00">
        <route edges="5 4"/>
    </vehicle>
    <vehicle id="185" depart="293.09">
        <route edges="7 1"/>
    </vehicle>
    <vehicle id="186" depart="293.09">
        <route edges="5 3"/>
    </vehicle>
    <vehicle id="187" depart="297.39">
        <route edges="0 1"/>
    </vehicle>
    <vehicle id="188" depart="298.24">
        <route edges="7 1"/>
    </vehicle>
    <vehicle id="189" depart="298.24">
        <route edges="5 3"/>
    </vehicle>
    <vehicle id="190" depart="303.38">
        <route edges="7 1"/>
    </vehicle>
    <vehicle id="191" depart="303.38">
        <route edges="5 3"/>
    </vehicle>
    <vehicle id="192" depart="306.00">
        <route edges="0 3"/>
    </vehicle>
    <vehicle id="193" depart="306.00">
        <route edges="7 4"/>
    </vehicle>
    <vehicle id="194" depart="306.00">
        <route edges="5 4"/>
    </vehicle>
    <vehicle id="195" depart="308.52">
        <route edges="7 1"/>
    </vehicle>
    <vehicle id="196" depart="308.52">
        <route edges="5 3"/>
    </vehicle>
    <vehicle id="197" depart="313.04">
        <route edges="0 1"/>
    </vehicle>
    <vehicle id="198" depart="313.66">
        <route edges="7 1"/>
    </vehicle>
    <vehicle id="199" depart="313.66">
        <route edges="5 3"/>
    </vehicle>
    <vehicle id="200" depart="318.80">
        <route edges="7 1"/>
    </vehicle>
    <vehicle id="201" depart="318.80">
        <route edges="5 3"/>
    </vehicle>
    <vehicle id="202" depart="323.95">
        <route edges="7 1"/>
    </vehicle>
    <vehicle id="203" depart="323.95">
        <route edges="5 3"/>
    </vehicle>
    <vehicle id="204" depart="324.00">
        <route edges="0 3"/>
    </vehicle>
    <vehicle id="205" depart="324.00">
        <route edges="7 4"/>
    </vehicle>
    <vehicle id="206" depart="324.00">
        <route edges="5 4"/>
    </vehicle>
    <vehicle id="207" depart="328.69">
        <route edges="0 1"/>
    </vehicle>
    <vehicle id="208" depart="329.09">
        <route edges="7 1"/>
    </vehicle>
    <vehicle id="209" depart="329.09">
        <route edges="5 3"/>
    </vehicle>
    <vehicle id="210" depart="334.23">
        <route edges="7 1"/>
    </vehicle>
    <vehicle id="211" depart="334.23">
        <route edges="5 3"/>
    </vehicle>
    <vehicle id="212" depart="339.37">
        <route edges="7 1"/>
    </vehicle>
    <vehicle id="213" depart="339.37">
        <route edges="5 3"/>
    </vehicle>
    <vehicle id="214" depart="342.00">
        <route edges="0 3"/>
    </vehicle>
    <vehicle id="215" depart="342.00">
        <route edges="7 4"/>
    </vehicle>
    <vehicle id="216" depart="342.00">
        <route edges="5 4"/>
    </vehicle>
    <vehicle id="217" depart="344.34">
        <route edges="0 1"/>
    </vehicle>
    <vehicle id="218" depart="344.51">
        <route edges="7 1"/>
    </vehicle>
    <vehicle id="219" depart="344.51">
        <route edges="5 3"/>
    </vehicle>
    <vehicle id="220" depart="349.66">
        <route edges="7 1"/>
    </vehicle>
    <vehicle id="221" depart="349.66">
        <route edges="5 3"/>
    </vehicle>
    <vehicle id="222" depart="354.80">
        <route edges="7 1"/>
    </vehicle>
    <vehicle id="223" depart="354.80">
        <route edges="5 3"/>
    </vehicle>
</routes>
