<?xml version="1.0" encoding="UTF-8"?>

<!-- generated on Fri Jun 13 13:41:49 2014 by SUMO duarouter Version 0.19.0
<?xml version="1.0" encoding="UTF-8"?>

<configuration xmlns:xsi="http://www.w3.org/2001/XMLSchema-instance" xsi:noNamespaceSchemaLocation="http://sumo-sim.org/xsd/duarouterConfiguration.xsd">

    <input>
        <net-file value="junction-big6.net.xml"/>
        <trip-files value="junction-big6.trips.xml"/>
    </input>

    <output>
        <output-file value="junction-big6.rou.xml"/>
    </output>

    <processing>
        <ignore-errors value="true"/>
        <routing-algorithm value="astar"/>
    </processing>

</configuration>
-->

<routes xmlns:xsi="http://www.w3.org/2001/XMLSchema-instance" xsi:noNamespaceSchemaLocation="http://sumo-sim.org/xsd/routes_file.xsd">
  <!--<route id="egoRoute" edges="127811437 131685633 131685634#0 131685634#1 131685634#2 131685634#3 127811436#0 127811436#1 128352005#0 128352005#1 12211556#0 4294033#0 4294033#1 4294033#2 128494846#0 128494846#1"/>   -->
 <vehicle id="0" depart="0.00">
        <route edges="127811437 131685633 131685634#0 131685634#1 131685634#2 131685634#3 127811436#0 127811436#1 128352005#0 128352005#1 12211556#0 4294033#0 4294033#1 4294033#2 128494846#0 128494846#1"/>
    </vehicle>
    <vehicle id="3" depart="0.30">
        <route edges="141514477#2 141514476#0 141514476#1 27375394#0 27375394#1"/>
    </vehicle>
    <vehicle id="6" depart="0.60">
        <route edges="141514477#1 121749534#0 121749534#1 4625884 128351991 27375394#0 27375394#1"/>
    </vehicle>
    <vehicle id="9" depart="0.90">
        <route edges="128494848#1 32564265 131685633 131685634#0 131685634#1 131685634#2 131685634#3 127811436#0 127811436#1 128352005#0 128352005#1 12211556#0 4294033#0 4294033#1 4294033#2 128494846#0 128494846#1"/>
    </vehicle>
    <vehicle id="11" depart="1.10">
        <route edges="32564265 131685633 131685634#0 131685634#1 131685634#2 131685634#3 127811436#0 127811436#1 128352005#0 128352005#1 12211556#0 12211556#1 12211556#2 127811435 128352010"/>
    </vehicle>
    <vehicle id="12" depart="1.20">
        <route edges="4641634#0 4641634#1"/>
    </vehicle>
    <vehicle id="13" depart="1.30">
        <route edges="128494845"/>
    </vehicle>
    <vehicle id="14" depart="1.40">
        <route edges="4335618#1 4335618#2 131685634#1 131685634#2 131685634#3 127811436#0 127811436#1 128352005#0 128352005#1 12211556#0 12211556#1 12211556#2 127811435 128352010 128352002 127811437 131685633 131685634#0"/>
    </vehicle>
    <vehicle id="17" depart="1.70">
        <route edges="141514477#0 141514477#1 141514477#2 12211552 128352001 128352005#0 128352005#1"/>
    </vehicle>
    <vehicle id="19" depart="1.90">
        <route edges="141514477#2 141514476#0 141514476#1 27375394#0 27375394#1 27375394#2"/>
    </vehicle>
    <vehicle id="24" depart="2.40">
        <route edges="141514477#0 141514477#1 32563422#0 32563422#1 128764824#0 128764824#1 128494845 26543357"/>
    </vehicle>
    <vehicle id="27" depart="2.70">
        <route edges="141514477#0 141514477#1 121749534#0 121749534#1 4625884"/>
    </vehicle>
    <vehicle id="29" depart="2.90">
        <route edges="131685634#1 131685634#2 131685634#3 127811436#0 127811436#1 128352005#0 128352005#1 12211556#0 4294033#0 4294033#1 4294033#2 128494846#0 128494846#1 128494846#2"/>
    </vehicle>
    <vehicle id="34" depart="3.40">
        <route edges="141514477#1 121749534#0 121749534#1 4625884 128351991 27375394#0 27375394#1 27375394#2"/>
    </vehicle>
    <vehicle id="36" depart="3.60">
        <route edges="131685633 131685634#0 131685634#1 131685634#2 131685634#3 127811436#0 127811436#1 128352005#0 128352005#1 12211556#0 4294033#0 4294033#1 4294033#2 128494846#0 128494846#1 128494846#2 -27335470#0"/>
    </vehicle>
    <vehicle id="39" depart="3.90">
        <route edges="128494848#0 128494848#1 32564265 131685633 131685634#0 131685634#1 131685634#2 131685634#3 127811436#0 127811436#1 128352005#0 128352005#1 12211556#0 4294033#0 4294033#1 4294033#2 128494846#0 128494846#1 128494846#2 -27335470#0"/>
    </vehicle>
    <vehicle id="40" depart="4.00">
        <route edges="128352002 127811437 131685633 131685634#0 131685634#1 131685634#2 131685634#3"/>
    </vehicle>

    <vehicle id="41" depart="4.10">
        <route edges="141514477#1 141514477#2 141514476#0"/>
    </vehicle>
    <vehicle id="42" depart="4.20">
        <route edges="141514476#1 27375394#0 27375394#1 27375394#2"/>
    </vehicle>
    <vehicle id="45" depart="4.50">
        <route edges="27375394#0 27375394#1"/>
    </vehicle>
    <vehicle id="48" depart="4.80">
        <route edges="141514477#0 141514477#1 121749534#0 121749534#1 4625884 128351991 27375394#0 27375394#1"/>
    </vehicle>
    <vehicle id="49" depart="4.90">
        <route edges="127811436#0 127811436#1"/>
    </vehicle>
    <vehicle id="51" depart="5.10">
        <route edges="4335618#0 4335618#1 4335618#2 131685634#1 131685634#2 131685634#3 127811436#0 127811436#1"/>
    </vehicle>
    <vehicle id="53" depart="5.30">
        <route edges="131685634#2 131685634#3 127811436#0 127811436#1 128352005#0 128352005#1 12211556#0 4294033#0"/>
    </vehicle>
    <vehicle id="56" depart="5.60">
        <route edges="141514477#2"/>
    </vehicle>
    <vehicle id="59" depart="5.90">
        <route edges="141514477#2 12211552 128352001 128352005#0 128352005#1 12211556#0 4294033#0"/>
    </vehicle>
    <vehicle id="60" depart="6.00">
        <route edges="27375394#0 27375394#1 27375394#2"/>
    </vehicle>
    <vehicle id="69" depart="6.90">
        <route edges="131685634#1 131685634#2 131685634#3 127811436#0 127811436#1 128352005#0 128352005#1 12211556#0 4294033#0 4294033#1 4294033#2 128494846#0 128494846#1 128494846#2"/>
    </vehicle>
    <vehicle id="71" depart="7.10">
        <route edges="128494848#1 32564265 131685633 131685634#0 131685634#1 131685634#2 131685634#3 127811436#0 127811436#1 128352005#0 128352005#1 12211556#0 4294033#0 4294033#1 4294033#2 26543357"/>
    </vehicle>
    <vehicle id="73" depart="7.30">
        <route edges="128351991 27375394#0"/>
    </vehicle>
    <vehicle id="75" depart="7.50">
        <route edges="141514476#1 27375394#0 27375394#1 27375394#2"/>
    </vehicle>
    <vehicle id="80" depart="8.00">
        <route edges="12211556#1 12211556#2 127811435 128352010 128352002 127811437 131685633 131685634#0 131685634#1 131685634#2 131685634#3 127811436#0 127811436#1 128352005#0 128352005#1 12211556#0 4294033#0 4294033#1 4294033#2 128494846#0"/>
    </vehicle>
    <!--
    <vehicle id="86" depart="8.60">
        <route edges="127811435 128352010 128352002 127811437 131685633 131685634#0 131685634#1 131685634#2 131685634#3 127811436#0 14019969#0 14019969#1 27375394#1 27375394#2"/>
    </vehicle>
    <vehicle id="91" depart="9.10">
        <route edges="131685634#3 127811436#0 127811436#1 128352005#0 128352005#1 12211556#0 12211556#1 12211556#2 127811435 128352010 128352002 127811437 131685633 131685634#0"/>
    </vehicle>
    <vehicle id="97" depart="9.70">
        <route edges="12211552 128352001 128352005#0 128352005#1 12211556#0 12211556#1 12211556#2 127811435 128352010"/>
    </vehicle>
    <vehicle id="98" depart="9.80">
        <route edges="12211556#2 127811435 128352010 128352002 127811437 131685633 131685634#0 131685634#1 4641634#0 4641634#1"/>
    </vehicle>
    <vehicle id="100" depart="10.00">
        <route edges="4294033#1 4294033#2 128494846#0"/>
    </vehicle>
    <vehicle id="102" depart="10.20">
        <route edges="141514477#2 12211552 128352001 128352005#0 128352005#1 12211556#0 12211556#1 12211556#2 127811435 128352010 128352002 127811437 131685633 131685634#0 131685634#1 131685634#2 131685634#3"/>
    </vehicle>
    <vehicle id="103" depart="10.30">
        <route edges="4294033#2 26543357"/>
    </vehicle>
    <vehicle id="109" depart="10.90">
        <route edges="128494848#0 128494848#1 32564265 131685633 131685634#0 131685634#1 131685634#2 131685634#3 127811436#0 127811436#1 128352005#0 128352005#1"/>
    </vehicle>
    <vehicle id="110" depart="11.00">
        <route edges="141514477#0 141514477#1 121749534#0 121749534#1 121749536#0 121749536#1"/>
    </vehicle>
    <vehicle id="113" depart="11.30">
        <route edges="128494848#1 32564265 131685633 131685634#0 131685634#1 131685634#2 131685634#3 127811436#0 127811436#1 128352005#0 128352005#1 12211556#0 4294033#0 4294033#1 4294033#2 128494846#0 128494846#1 128494846#2"/>
    </vehicle>
    <vehicle id="114" depart="11.40">
        <route edges="12211552 128352001 128352005#0 128352005#1 12211556#0 12211556#1 12211556#2 127811435 128352010 128352002 127811437 131685633 131685634#0 131685634#1 131685634#2 131685634#3 127811436#0 127811436#1"/>
    </vehicle>
    <vehicle id="121" depart="12.10">
        <route edges="27375394#0 27375394#1"/>
    </vehicle>
    <vehicle id="125" depart="12.50">
        <route edges="32564265 131685633 131685634#0 131685634#1 131685634#2 131685634#3 127811436#0 14019969#0 14019969#1 27375394#1"/>
    </vehicle>
    <vehicle id="131" depart="13.10">
        <route edges="4335618#2 131685634#1 131685634#2 131685634#3 127811436#0 14019969#0 14019969#1 27375394#1"/>
    </vehicle>
    <vehicle id="132" depart="13.20">
        <route edges="141514477#0 141514477#1 32563422#0 32563422#1 128764824#0 128764824#1 128494845 128494846#0 128494846#1"/>
    </vehicle>
    <vehicle id="134" depart="13.40">
        <route edges="4335618#0 4335618#1 4335618#2 131685634#1 131685634#2 131685634#3 127811436#0 127811436#1"/>
    </vehicle>
    <vehicle id="137" depart="13.70">
        <route edges="32564265 131685633 131685634#0 131685634#1 131685634#2 131685634#3 127811436#0 127811436#1 128352005#0 128352005#1 12211556#0 12211556#1 12211556#2 127811435 128352010 128352002"/>
    </vehicle>
    <vehicle id="138" depart="13.80">
        <route edges="-26543357 128494846#0 128494846#1"/>
    </vehicle>
    <vehicle id="143" depart="14.30">
        <route edges="128494848#1 32564265 131685633 131685634#0 131685634#1 131685634#2"/>
    </vehicle>
    <vehicle id="147" depart="14.70">
        <route edges="141514477#1 121749534#0 121749534#1 4625884 128351991 27375394#0"/>
    </vehicle>
    <vehicle id="148" depart="14.80">
        <route edges="141514477#0 141514477#1 141514477#2 12211552 128352001 128352005#0"/>
    </vehicle>
    <vehicle id="154" depart="15.40">
        <route edges="127811435 128352010 128352002 127811437 131685633"/>
    </vehicle>
    <vehicle id="157" depart="15.70">
        <route edges="141514477#0 141514477#1 141514477#2"/>
    </vehicle>
    <vehicle id="160" depart="16.00">
        <route edges="141514477#0 141514477#1 141514477#2 12211552 128352001 128352005#0 128352005#1 12211556#0 12211556#1 12211556#2 127811435 128352010 128352002"/>
    </vehicle>
    <vehicle id="168" depart="16.80">
        <route edges="128352005#1 12211556#0 12211556#1"/>
    </vehicle>
    <vehicle id="169" depart="16.90">
        <route edges="141514477#1 141514477#2 12211552 128352001 128352005#0 128352005#1 12211556#0 12211556#1 12211556#2 127811435 128352010 128352002 127811437 131685633 131685634#0 131685634#1 4641634#0"/>
    </vehicle>
    <vehicle id="183" depart="18.30">
        <route edges="141514477#1 141514477#2 12211552 128352001 128352005#0 128352005#1 12211556#0 12211556#1 12211556#2 127811435 128352010 128352002 127811437 131685633 131685634#0 131685634#1"/>
    </vehicle>
    <vehicle id="186" depart="18.60">
        <route edges="127811435 128352010 128352002 127811437 131685633 131685634#0 131685634#1 131685634#2 131685634#3 127811436#0 127811436#1 128352005#0 128352005#1 12211556#0 4294033#0 4294033#1 4294033#2 128494846#0 128494846#1 128494846#2 -27335470#0"/>
    </vehicle>
    <vehicle id="192" depart="19.20">
        <route edges="128352001 128352005#0 128352005#1 12211556#0 12211556#1 12211556#2 127811435 128352010 128352002 127811437 131685633 131685634#0 131685634#1 4641634#0"/>
    </vehicle>
    <vehicle id="197" depart="19.70">
        <route edges="141514477#1 32563422#0 32563422#1 128764824#0 128764824#1 128494845"/>
    </vehicle>
    <vehicle id="205" depart="20.50">
        <route edges="141514477#0 141514477#1 121749534#0 121749534#1 121749536#0"/>
    </vehicle>
    <vehicle id="206" depart="20.60">
        <route edges="128494848#1 32564265 131685633 131685634#0 131685634#1 131685634#2 131685634#3 127811436#0 127811436#1 128352005#0 128352005#1 12211556#0 12211556#1 12211556#2 127811435 128352010"/>
    </vehicle>
    <vehicle id="207" depart="20.70">
        <route edges="141514477#2 12211552"/>
    </vehicle>
    <vehicle id="209" depart="20.90">
        <route edges="128494848#0 128494848#1 32564265 131685633 131685634#0 131685634#1 131685634#2 131685634#3 127811436#0 127811436#1 128352005#0 128352005#1 12211556#0 12211556#1 12211556#2"/>
    </vehicle>
    <vehicle id="218" depart="21.80">
        <route edges="128494848#0 128494848#1 32564265 131685633 131685634#0 131685634#1 131685634#2 131685634#3 127811436#0 14019969#0 14019969#1 27375394#1 27375394#2"/>
    </vehicle>
    <vehicle id="219" depart="21.90">
        <route edges="121749536#0"/>
    </vehicle>
    <vehicle id="221" depart="22.10">
        <route edges="14019969#0 14019969#1 27375394#1 27375394#2"/>
    </vehicle>
    <vehicle id="222" depart="22.20">
        <route edges="141514477#1 32563422#0 32563422#1 128764824#0 128764824#1"/>
    </vehicle>
    <vehicle id="229" depart="22.90">
        <route edges="12211556#1 12211556#2 127811435 128352010 128352002 127811437 131685633 131685634#0 131685634#1 4641634#0 4641634#1 4641634#2"/>
    </vehicle>
    <vehicle id="234" depart="23.40">
        <route edges="141514477#1 32563422#0 32563422#1 128764824#0 128764824#1 128494845 128494846#0 128494846#1 128494846#2"/>
    </vehicle>
    <vehicle id="236" depart="23.60">
        <route edges="127811436#1 128352005#0 128352005#1 12211556#0 12211556#1 12211556#2 127811435 128352010 128352002 127811437 131685633 131685634#0 131685634#1 131685634#2 131685634#3 127811436#0"/>
    </vehicle>
    <vehicle id="243" depart="24.30">
        <route edges="141514477#1"/>
    </vehicle>
    <vehicle id="245" depart="24.50">
        <route edges="141514477#0 141514477#1 141514477#2 12211552 128352001 128352005#0 128352005#1 12211556#0 12211556#1 12211556#2 127811435 128352010 128352002 127811437 131685633 131685634#0 131685634#1 131685634#2 131685634#3 127811436#0 14019969#0"/>
    </vehicle>
    <vehicle id="249" depart="24.90">
        <route edges="4294033#1 4294033#2 -128494845"/>
    </vehicle>
    <vehicle id="251" depart="25.10">
        <route edges="127811437 131685633"/>
    </vehicle>
    <vehicle id="254" depart="25.40">
        <route edges="131685634#1 131685634#2 131685634#3 127811436#0 127811436#1 128352005#0 128352005#1 12211556#0 12211556#1 12211556#2 127811435"/>
    </vehicle>
    <vehicle id="255" depart="25.50">
        <route edges="141514477#0 141514477#1"/>
    </vehicle>
    <vehicle id="258" depart="25.80">
        <route edges="141514477#1 141514477#2 12211552 128352001 128352005#0 128352005#1 12211556#0 12211556#1"/>
    </vehicle>
    <vehicle id="261" depart="26.10">
        <route edges="141514477#0 141514477#1 32563422#0 32563422#1 128764824#0"/>
    </vehicle>
    <vehicle id="264" depart="26.40">
        <route edges="141514477#2 12211552 128352001 128352005#0 128352005#1 12211556#0"/>
    </vehicle>
    <vehicle id="265" depart="26.50">
        <route edges="131685634#1 4641634#0"/>
    </vehicle>
    <vehicle id="266" depart="26.60">
        <route edges="12211556#0 12211556#1 12211556#2 127811435 128352010 128352002 127811437 131685633 131685634#0 131685634#1 131685634#2 131685634#3 127811436#0 14019969#0 14019969#1 27375394#1"/>
    </vehicle>
    <vehicle id="269" depart="26.90">
        <route edges="141514477#1 141514477#2 12211552 128352001 128352005#0 128352005#1 12211556#0 4294033#0 4294033#1 4294033#2"/>
    </vehicle>
    <vehicle id="270" depart="27.00">
        <route edges="141514477#2 12211552 128352001 128352005#0 128352005#1 12211556#0 12211556#1 12211556#2 127811435 128352010 128352002"/>
    </vehicle>
    <vehicle id="276" depart="27.60">
        <route edges="128494848#1 32564265 131685633 131685634#0 131685634#1 131685634#2 131685634#3 127811436#0 14019969#0 14019969#1"/>
    </vehicle>
    <vehicle id="277" depart="27.70">
        <route edges="141514477#1 141514477#2 12211552 128352001 128352005#0 128352005#1 12211556#0 12211556#1 12211556#2 127811435 128352010"/>
    </vehicle>
    <vehicle id="278" depart="27.80">
        <route edges="141514477#1 121749534#0 121749534#1 4625884 128351991 27375394#0"/>
    </vehicle>
    <vehicle id="280" depart="28.00">
        <route edges="141514477#1 32563422#0 32563422#1 128764824#0 128764824#1 128494845 128494846#0"/>
    </vehicle>
    <vehicle id="285" depart="28.50">
        <route edges="128352001 128352005#0 128352005#1 12211556#0 12211556#1 12211556#2 127811435 128352010 128352002 127811437 131685633 131685634#0 131685634#1 131685634#2 131685634#3 127811436#0 14019969#0 14019969#1"/>
    </vehicle>
    <vehicle id="292" depart="29.20">
        <route edges="141514477#0 141514477#1 141514477#2 12211552 128352001 128352005#0 128352005#1 12211556#0 4294033#0 4294033#1 4294033#2 -128494845"/>
    </vehicle>
    <vehicle id="293" depart="29.30">
        <route edges="141514477#2 141514476#0 141514476#1 27375394#0"/>
    </vehicle>
    <vehicle id="294" depart="29.40">
        <route edges="12211556#2 127811435 128352010 128352002 127811437 131685633 131685634#0 131685634#1 131685634#2 131685634#3 127811436#0 14019969#0 14019969#1"/>
    </vehicle>
    <vehicle id="296" depart="29.60">
        <route edges="19967569 -128494846#1 -128494846#0 -128494845"/>
    </vehicle>
    <vehicle id="308" depart="30.80">
        <route edges="141514477#1 121749534#0 121749534#1 4625884 128351991 27375394#0 27375394#1"/>
    </vehicle>
    <vehicle id="309" depart="30.90">
        <route edges="32564265 131685633 131685634#0 131685634#1 131685634#2 131685634#3 127811436#0 127811436#1 128352005#0 128352005#1 12211556#0 12211556#1"/>
    </vehicle>
    <vehicle id="310" depart="31.00">
        <route edges="131685634#3 127811436#0 127811436#1 128352005#0 128352005#1 12211556#0 12211556#1 12211556#2 127811435 128352010 128352002 127811437 131685633 131685634#0 131685634#1 4641634#0 4641634#1 4641634#2"/>
    </vehicle>
    <vehicle id="313" depart="31.30">
        <route edges="141514477#1 141514477#2 141514476#0"/>
    </vehicle>
    <vehicle id="320" depart="32.00">
        <route edges="141514477#0 141514477#1 141514477#2 12211552 128352001 128352005#0 128352005#1 12211556#0 12211556#1 12211556#2 127811435 128352010 128352002 127811437 131685633 131685634#0 131685634#1 4641634#0 4641634#1"/>
    </vehicle>
    <vehicle id="321" depart="32.10">
        <route edges="127811437 131685633 131685634#0 131685634#1 131685634#2 131685634#3 127811436#0 127811436#1 128352005#0 128352005#1 12211556#0 4294033#0 4294033#1 4294033#2 128494846#0 128494846#1 128494846#2 27335470#1"/>
    </vehicle>
    <vehicle id="328" depart="32.80">
        <route edges="128352005#0 128352005#1 12211556#0 4294033#0 4294033#1 4294033#2 128494846#0 128494846#1 128494846#2 27335470#1"/>
    </vehicle>
    <vehicle id="332" depart="33.20">
        <route edges="-121749536#1 -121749536#0 4625884"/>
    </vehicle>
    <vehicle id="333" depart="33.30">
        <route edges="141514477#0 141514477#1 141514477#2 12211552 128352001 128352005#0 128352005#1 12211556#0 12211556#1 12211556#2 127811435 128352010 128352002 127811437 131685633 131685634#0 131685634#1 131685634#2 131685634#3 127811436#0 14019969#0 14019969#1"/>
    </vehicle>
    <vehicle id="338" depart="33.80">
        <route edges="141514477#1"/>
    </vehicle>
    <vehicle id="340" depart="34.00">
        <route edges="141514477#1"/>
    </vehicle>
    <vehicle id="343" depart="34.30">
        <route edges="141514477#1 141514477#2 12211552 128352001 128352005#0 128352005#1 12211556#0"/>
    </vehicle>
    <vehicle id="347" depart="34.70">
        <route edges="127811437 131685633 131685634#0 131685634#1 131685634#2 131685634#3 127811436#0 127811436#1 128352005#0 128352005#1 12211556#0 4294033#0 4294033#1"/>
    </vehicle>
    <vehicle id="358" depart="35.80">
        <route edges="141514477#1 141514477#2 12211552 128352001 128352005#0 128352005#1 12211556#0 4294033#0"/>
    </vehicle>
    <vehicle id="361" depart="36.10">
        <route edges="12211552 128352001 128352005#0 128352005#1 12211556#0 12211556#1 12211556#2 127811435 128352010 128352002 127811437 131685633 131685634#0 131685634#1 131685634#2 131685634#3 127811436#0 14019969#0 14019969#1 27375394#1 27375394#2"/>
    </vehicle>
    <vehicle id="364" depart="36.40">
        <route edges="141514477#2 12211552 128352001 128352005#0 128352005#1 12211556#0 12211556#1"/>
    </vehicle>
    <vehicle id="365" depart="36.50">
        <route edges="-128494846#1 -128494846#0"/>
    </vehicle>
    <vehicle id="367" depart="36.70">
        <route edges="131685633 131685634#0 131685634#1 131685634#2 131685634#3 127811436#0 127811436#1 128352005#0 128352005#1 12211556#0 12211556#1 12211556#2 127811435 128352010"/>
    </vehicle>
    <vehicle id="368" depart="36.80">
        <route edges="131685634#0 131685634#1 131685634#2 131685634#3 127811436#0 14019969#0 14019969#1 27375394#1 27375394#2"/>
    </vehicle>
    <vehicle id="369" depart="36.90">
        <route edges="127811435 128352010 128352002 127811437 131685633 131685634#0 131685634#1"/>
    </vehicle>
    <vehicle id="371" depart="37.10">
        <route edges="141514477#1 141514477#2 12211552 128352001 128352005#0 128352005#1 12211556#0 12211556#1 12211556#2 127811435 128352010 128352002 127811437 131685633"/>
    </vehicle>
    <vehicle id="374" depart="37.40">
        <route edges="128352002 127811437 131685633 131685634#0 131685634#1 131685634#2 131685634#3"/>
    </vehicle>
    <vehicle id="379" depart="37.90">
        <route edges="141514477#0 141514477#1 141514477#2"/>
    </vehicle>
    <vehicle id="382" depart="38.20">
        <route edges="27335470#0 -128494846#2 -128494846#1 -128494846#0"/>
    </vehicle>
    <vehicle id="385" depart="38.50">
        <route edges="131685634#0 131685634#1 131685634#2 131685634#3 127811436#0 127811436#1 128352005#0 128352005#1 12211556#0 4294033#0 4294033#1 4294033#2 128494846#0 128494846#1"/>
    </vehicle>
    <vehicle id="392" depart="39.20">
        <route edges="141514477#2 12211552 128352001 128352005#0 128352005#1 12211556#0 12211556#1 12211556#2 127811435 128352010 128352002 127811437 131685633 131685634#0 131685634#1 131685634#2"/>
    </vehicle>
    <vehicle id="395" depart="39.50">
        <route edges="141514477#0 141514477#1 141514477#2 12211552 128352001 128352005#0 128352005#1 12211556#0 12211556#1 12211556#2 127811435 128352010 128352002 127811437 131685633 131685634#0 131685634#1 4641634#0 4641634#1 4641634#2"/>
    </vehicle>
    <vehicle id="401" depart="40.10">
        <route edges="127811436#1 128352005#0 128352005#1 12211556#0 12211556#1 12211556#2"/>
    </vehicle>
    <vehicle id="405" depart="40.50">
        <route edges="4335618#2 131685634#1 131685634#2 131685634#3 127811436#0 127811436#1 128352005#0 128352005#1 12211556#0 12211556#1 12211556#2 127811435 128352010 128352002 127811437 131685633"/>
    </vehicle>
    <vehicle id="406" depart="40.60">
        <route edges="141514477#2 141514476#0 141514476#1"/>
    </vehicle>
    <vehicle id="408" depart="40.80">
        <route edges="4294033#2 128494846#0 128494846#1"/>
    </vehicle>
    <vehicle id="409" depart="40.90">
        <route edges="128352001 128352005#0 128352005#1 12211556#0 12211556#1 12211556#2 127811435 128352010 128352002 127811437 131685633 131685634#0 131685634#1 131685634#2 131685634#3 127811436#0 127811436#1"/>
    </vehicle>
    <vehicle id="419" depart="41.90">
        <route edges="128352010 128352002 127811437 131685633 131685634#0 131685634#1 131685634#2 131685634#3 127811436#0 127811436#1 128352005#0 128352005#1 12211556#0 4294033#0 4294033#1 4294033#2 26543357"/>
    </vehicle>
    <vehicle id="423" depart="42.30">
        <route edges="32564265 131685633 131685634#0 131685634#1 131685634#2 131685634#3 127811436#0 127811436#1 128352005#0 128352005#1 12211556#0 4294033#0 4294033#1 4294033#2 128494846#0 128494846#1 128494846#2 27335470#1"/>
    </vehicle>
    <vehicle id="434" depart="43.40">
        <route edges="131685634#0 131685634#1 131685634#2 131685634#3 127811436#0 127811436#1 128352005#0 128352005#1 12211556#0 4294033#0 4294033#1 4294033#2 128494846#0 128494846#1"/>
    </vehicle>
    <vehicle id="435" depart="43.50">
        <route edges="141514477#1 141514477#2 12211552 128352001 128352005#0 128352005#1 12211556#0 4294033#0 4294033#1"/>
    </vehicle>
    <vehicle id="439" depart="43.90">
        <route edges="127811436#1 128352005#0 128352005#1 12211556#0 4294033#0 4294033#1 4294033#2 128494846#0"/>
    </vehicle>
    <vehicle id="443" depart="44.30">
        <route edges="141514477#1 121749534#0 121749534#1 4625884"/>
    </vehicle>
    <vehicle id="445" depart="44.50">
        <route edges="131685634#2 131685634#3 127811436#0 127811436#1 128352005#0 128352005#1 12211556#0 4294033#0 4294033#1 4294033#2 128494846#0 128494846#1 128494846#2"/>
    </vehicle>
    <vehicle id="451" depart="45.10">
        <route edges="128352010 128352002 127811437 131685633 131685634#0 131685634#1 4641634#0 4641634#1"/>
    </vehicle>
    <vehicle id="452" depart="45.20">
        <route edges="141514477#1 141514477#2 141514476#0 141514476#1"/>
    </vehicle>
    <vehicle id="454" depart="45.40">
        <route edges="141514476#1 27375394#0 27375394#1"/>
    </vehicle>
    <vehicle id="457" depart="45.70">
        <route edges="4625884 128351991"/>
    </vehicle>
    <vehicle id="460" depart="46.00">
        <route edges="32564265 131685633 131685634#0 131685634#1"/>
    </vehicle>
    <vehicle id="463" depart="46.30">
        <route edges="141514477#2 141514476#0"/>
    </vehicle>
    <vehicle id="464" depart="46.40">
        <route edges="32563422#1 128764824#0 128764824#1 128494845 128494846#0 128494846#1 128494846#2"/>
    </vehicle>
    <vehicle id="473" depart="47.30">
        <route edges="127811436#0 127811436#1 128352005#0 128352005#1 12211556#0 12211556#1 12211556#2 127811435 128352010"/>
    </vehicle>
    <vehicle id="477" depart="47.70">
        <route edges="141514477#2 12211552 128352001 128352005#0 128352005#1 12211556#0 4294033#0 4294033#1 4294033#2"/>
    </vehicle>
    <vehicle id="481" depart="48.10">
        <route edges="141514477#2 141514476#0 141514476#1 27375394#0"/>
    </vehicle>
    <vehicle id="483" depart="48.30">
        <route edges="141514477#0 141514477#1 141514477#2 12211552 128352001 128352005#0 128352005#1 12211556#0 12211556#1 12211556#2 127811435 128352010 128352002 127811437 131685633 131685634#0 131685634#1 131685634#2 131685634#3 127811436#0 127811436#1"/>
    </vehicle>
    <vehicle id="485" depart="48.50">
        <route edges="141514477#0 141514477#1 121749534#0 121749534#1 4625884 128351991 27375394#0"/>
    </vehicle>
    <vehicle id="487" depart="48.70">
        <route edges="141514477#0 141514477#1"/>
    </vehicle>
    <vehicle id="491" depart="49.10">
        <route edges="4335618#1 4335618#2 131685634#1 131685634#2 131685634#3 127811436#0 127811436#1 128352005#0 128352005#1 12211556#0 4294033#0"/>
    </vehicle>
    <vehicle id="496" depart="49.60">
        <route edges="141514477#2 141514476#0 141514476#1 27375394#0 27375394#1 27375394#2"/>
        </vehicle>-->
</routes>
