<?xml version="1.0" encoding="UTF-8"?>

<!-- generated on Thu Sep 11 14:46:22 2014 by SUMO netconvert Version 0.21.0
<?xml version="1.0" encoding="UTF-8"?>

<configuration xmlns:xsi="http://www.w3.org/2001/XMLSchema-instance" xsi:noNamespaceSchemaLocation="http://sumo-sim.org/xsd/netconvertConfiguration.xsd">

    <input>
        <osm-files value="/home/wmatex/Projects/Agents/agentdrivecity/test/sumo_maps/dresden/dresden.osm"/>
    </input>

    <output>
        <output-file value="/home/wmatex/Projects/Agents/agentdrivecity/test/sumo_maps/dresden/dresden.net.xml"/>
    </output>

    <projection>
        <proj.utm value="true"/>
    </projection>

    <tls_building>
        <tls.join value="true"/>
    </tls_building>

    <edge_removal>
        <remove-edges.by-vclass value="hov,taxi,bus,delivery,transport,lightrail,cityrail,rail_slow,rail_fast,motorcycle,bicycle,pedestrian"/>
    </edge_removal>

    <processing>
        <no-internal-links value="true"/>
        <no-turnarounds value="true"/>
    </processing>

</configuration>
-->

<net version="0.13" xmlns:xsi="http://www.w3.org/2001/XMLSchema-instance" xsi:noNamespaceSchemaLocation="http://sumo-sim.org/xsd/net_file.xsd">

    <location netOffset="-409559.74,-5656635.63" convBoundary="0.00,0.00,936.54,727.64" origBoundary="13.709505,51.054223,13.722894,51.060731" projParameter="+proj=utm +zone=33 +ellps=WGS84 +datum=WGS84 +units=m +no_defs"/>

    <edge id="-166518453#0" from="1792929432" to="25236458" priority="4" type="highway.residential">
        <lane id="-166518453#0_0" index="0" speed="13.89" length="51.48" shape="322.41,426.58 281.27,448.68"/>
    </edge>
    <edge id="-166518453#1" from="1776031118" to="1792929432" priority="4" type="highway.residential">
        <lane id="-166518453#1_0" index="0" speed="13.89" length="49.52" shape="361.81,405.30 322.41,426.58"/>
    </edge>
    <edge id="-166518734#0" from="315518379" to="315518382" priority="4" type="highway.residential" shape="337.31,561.80 367.74,545.27 377.11,540.21">
        <lane id="-166518734#0_0" index="0" speed="13.89" length="45.28" shape="340.71,558.08 366.95,543.82 376.32,538.75"/>
    </edge>
    <edge id="-166518734#1" from="1792929428" to="315518379" priority="4" type="highway.residential">
        <lane id="-166518734#1_0" index="0" speed="13.89" length="64.44" shape="308.02,504.38 336.50,556.84"/>
    </edge>
    <edge id="-166518734#2" from="25236458" to="1792929428" priority="4" type="highway.residential">
        <lane id="-166518734#2_0" index="0" speed="13.89" length="63.39" shape="280.01,452.89 308.02,504.38"/>
    </edge>
    <edge id="-167574361#0" from="2992604650" to="1776031118" priority="4" type="highway.residential">
        <lane id="-167574361#0_0" index="0" speed="13.89" length="28.09" shape="390.88,390.10 370.14,400.89"/>
    </edge>
    <edge id="-167574361#1" from="25116988" to="2992604650" priority="4" type="highway.residential">
        <lane id="-167574361#1_0" index="0" speed="13.89" length="37.24" shape="419.50,374.62 390.90,390.09"/>
    </edge>
    <edge id="-167574361#10" from="1950587926" to="1950587933" priority="4" type="highway.residential">
        <lane id="-167574361#10_0" index="0" speed="13.89" length="38.63" shape="690.70,230.99 656.43,248.81"/>
    </edge>
    <edge id="-167574361#11" from="76865083" to="1950587926" priority="4" type="highway.residential" shape="840.19,153.21 801.05,171.78 781.44,181.97 689.94,229.52">
        <lane id="-167574361#11_0" index="0" speed="13.89" length="168.54" shape="840.89,154.70 801.76,173.27 782.20,183.44 690.70,230.99"/>
    </edge>
    <edge id="-167574361#2" from="1774945496" to="25116988" priority="4" type="highway.residential">
        <lane id="-167574361#2_0" index="0" speed="13.89" length="32.74" shape="452.46,356.79 427.85,370.10"/>
    </edge>
    <edge id="-167574361#3" from="25116991" to="1774945496" priority="4" type="highway.residential">
        <lane id="-167574361#3_0" index="0" speed="13.89" length="29.43" shape="474.35,345.34 452.44,356.80"/>
    </edge>
    <edge id="-167574361#4" from="1772920726" to="25116991" priority="4" type="highway.residential">
        <lane id="-167574361#4_0" index="0" speed="13.89" length="54.63" shape="526.82,317.63 482.78,340.91"/>
    </edge>
    <edge id="-167574361#5" from="292834955" to="1772920726" priority="4" type="highway.residential">
        <lane id="-167574361#5_0" index="0" speed="13.89" length="18.27" shape="542.92,308.96 526.83,317.62"/>
    </edge>
    <edge id="-167574361#6" from="21552170" to="292834955" priority="4" type="highway.residential">
        <lane id="-167574361#6_0" index="0" speed="13.89" length="40.26" shape="574.29,292.22 542.92,308.97"/>
    </edge>
    <edge id="-167574361#7" from="1950587942" to="21552170" priority="4" type="highway.residential">
        <lane id="-167574361#7_0" index="0" speed="13.89" length="51.06" shape="623.51,266.03 582.67,287.75"/>
    </edge>
    <edge id="-167574361#8" from="322550357" to="1950587942" priority="4" type="highway.residential">
        <lane id="-167574361#8_0" index="0" speed="13.89" length="10.21" shape="632.52,261.23 623.51,266.03"/>
    </edge>
    <edge id="-167574361#9" from="1950587933" to="322550357" priority="4" type="highway.residential">
        <lane id="-167574361#9_0" index="0" speed="13.89" length="26.96" shape="656.43,248.81 632.51,261.24"/>
    </edge>
    <edge id="-216865529#0" from="25116967" to="2261868629" priority="15" type="highway.residential|railway.tram" shape="804.44,528.61 875.00,490.79 894.60,480.00 914.77,469.11">
        <lane id="-216865529#0_0" index="0" speed="8.33" length="125.35" shape="806.44,525.67 874.22,489.33 893.80,478.56 913.99,467.66"/>
    </edge>
    <edge id="-216865529#1" from="333748501" to="25116967" priority="15" type="highway.residential|railway.tram">
        <lane id="-216865529#1_0" index="0" speed="8.33" length="43.63" shape="765.11,547.57 800.96,528.59"/>
    </edge>
    <edge id="-216865529#2" from="292834266" to="333748501" priority="15" type="highway.residential|railway.tram" shape="551.94,663.17 564.32,656.85 567.45,655.23 610.57,631.93 624.58,624.50 639.01,617.00 661.88,605.24 729.33,568.94 765.88,549.03">
        <lane id="-216865529#2_0" index="0" speed="8.33" length="242.50" shape="551.19,661.70 563.57,655.38 566.69,653.76 609.79,630.48 623.80,623.04 638.25,615.53 661.12,603.78 728.55,567.49 765.11,547.58"/>
    </edge>
    <edge id="-216865529#3" from="334011873" to="292834266" priority="15" type="highway.residential|railway.tram" shape="439.22,721.93 489.53,696.00 551.94,663.17">
        <lane id="-216865529#3_0" index="0" speed="8.33" length="127.12" shape="438.46,720.47 488.77,694.53 551.19,661.71"/>
    </edge>
    <edge id="-216865529#4" from="21552169" to="334011873" priority="15" type="highway.residential|railway.tram">
        <lane id="-216865529#4_0" index="0" speed="8.33" length="12.45" shape="430.22,724.72 438.46,720.47"/>
    </edge>
    <edge id="-28701862" from="21552169" to="315518379" priority="4" type="highway.residential">
        <lane id="-28701862_0" index="0" speed="13.89" length="189.09" shape="425.19,725.66 338.15,566.77"/>
    </edge>
    <edge id="-32782176#0" from="25116982" to="21552162" priority="15" type="highway.tertiary|railway.tram">
        <lane id="-32782176#0_0" index="0" speed="13.89" length="114.95" shape="424.63,226.50 516.47,176.47"/>
    </edge>
    <edge id="-32782176#1" from="2208044270" to="25116982" priority="15" type="highway.tertiary|railway.tram">
        <lane id="-32782176#1_0" index="0" speed="13.89" length="23.90" shape="399.51,240.06 416.30,231.01"/>
    </edge>
    <edge id="-32782176#2" from="25116979" to="2208044270" priority="15" type="highway.tertiary|railway.tram" shape="364.24,261.14 372.82,256.40 400.29,241.51">
        <lane id="-32782176#2_0" index="0" speed="13.89" length="41.05" shape="367.56,257.42 372.03,254.96 399.51,240.06"/>
    </edge>
    <edge id="-32782176#3" from="25116973" to="25116979" priority="15" type="highway.tertiary|railway.tram" shape="306.95,293.29 353.32,267.19 364.24,261.14">
        <lane id="-32782176#3_0" index="0" speed="13.89" length="65.69" shape="310.23,289.55 352.51,265.75 359.24,262.02"/>
    </edge>
    <edge id="-32782176#4" from="21552163" to="25116973" priority="15" type="highway.tertiary|railway.tram">
        <lane id="-32782176#4_0" index="0" speed="13.89" length="99.91" shape="222.17,336.47 301.18,294.49"/>
    </edge>
    <edge id="-32782176#5" from="2647425446" to="21552163" priority="15" type="highway.tertiary|railway.tram" shape="72.71,420.89 81.75,415.93 218.73,340.17">
        <lane id="-32782176#5_0" index="0" speed="13.89" length="166.85" shape="71.90,419.45 80.95,414.48 213.72,341.06"/>
    </edge>
    <edge id="-32782176#6" from="1459472879" to="2647425446" priority="15" type="highway.tertiary|railway.tram">
        <lane id="-32782176#6_0" index="0" speed="13.89" length="6.17" shape="66.47,422.29 71.94,419.43"/>
    </edge>
    <edge id="-32782176#7" from="536672" to="1459472879" priority="15" type="highway.tertiary|railway.tram">
        <lane id="-32782176#7_0" index="0" speed="13.89" length="29.61" shape="40.57,436.73 66.46,422.30"/>
    </edge>
    <edge id="-4073147#0" from="21552166" to="21552164" priority="4" type="highway.residential" shape="176.88,259.88 143.33,278.78 69.45,320.05 32.01,341.03 0.00,358.96">
        <lane id="-4073147#0_0" index="0" speed="13.89" length="202.74" shape="173.45,263.70 144.14,280.21 70.26,321.49 32.82,342.46 0.81,360.40"/>
    </edge>
    <edge id="-4073147#1" from="25116970" to="21552166" priority="4" type="highway.residential">
        <lane id="-4073147#1_0" index="0" speed="13.89" length="95.92" shape="256.43,215.62 181.69,259.00"/>
    </edge>
    <edge id="-4073147#2" from="2277954502" to="25116970" priority="4" type="highway.residential" shape="640.38,0.00 629.34,7.41 616.31,14.67 590.90,28.14 554.18,48.56 474.39,93.26 344.65,165.43 259.84,211.74">
        <lane id="-4073147#2_0" index="0" speed="13.89" length="435.54" shape="641.30,1.37 630.26,8.78 617.12,16.11 591.68,29.59 554.98,50.00 475.19,94.70 345.45,166.87 264.75,210.93"/>
    </edge>
    <edge id="-4073148#0" from="391261667" to="21552166" priority="4" type="highway.residential">
        <lane id="-4073148#0_0" index="0" speed="13.89" length="32.09" shape="190.23,289.10 177.66,264.95"/>
    </edge>
    <edge id="-4073148#1" from="21552163" to="391261667" priority="4" type="highway.residential">
        <lane id="-4073148#1_0" index="0" speed="13.89" length="58.46" shape="215.06,336.70 190.23,289.11"/>
    </edge>
    <edge id="-4073148#2" from="25236458" to="21552163" priority="4" type="highway.residential">
        <lane id="-4073148#2_0" index="0" speed="13.89" length="123.54" shape="272.59,446.03 219.51,345.20"/>
    </edge>
    <edge id="-4073149" from="21552162" to="21552170" priority="4" type="highway.residential">
        <lane id="-4073149_0" index="0" speed="13.89" length="128.47" shape="523.18,178.54 576.94,283.52"/>
    </edge>
    <edge id="-4073151#0" from="322885648" to="21552172" priority="4" type="highway.residential">
        <lane id="-4073151#0_0" index="0" speed="13.89" length="27.62" shape="739.05,347.61 719.71,356.72"/>
    </edge>
    <edge id="-4073151#1" from="25873171" to="322885648" priority="4" type="highway.residential" shape="936.54,241.23 891.39,261.60 738.44,346.08">
        <lane id="-4073151#1_0" index="0" speed="13.89" length="224.26" shape="937.21,242.73 892.07,263.10 739.33,347.47"/>
    </edge>
    <edge id="-4229098" from="25236458" to="25236455" priority="4" type="highway.residential">
        <lane id="-4229098_0" index="0" speed="13.89" length="202.94" shape="272.79,453.14 96.68,543.99"/>
    </edge>
    <edge id="-4229116#0" from="391261683" to="25116970" priority="4" type="highway.residential">
        <lane id="-4229116#0_0" index="0" speed="13.89" length="40.43" shape="277.14,248.34 260.65,216.84"/>
    </edge>
    <edge id="-4229116#1" from="25116973" to="391261683" priority="4" type="highway.residential" shape="306.95,293.29 301.34,287.07 278.59,247.55">
        <lane id="-4229116#1_0" index="0" speed="13.89" length="53.98" shape="301.93,290.19 300.00,288.05 277.14,248.34"/>
    </edge>
    <edge id="-4229116#2" from="1776031118" to="25116973" priority="4" type="highway.residential">
        <lane id="-4229116#2_0" index="0" speed="13.89" length="122.97" shape="361.50,398.20 307.74,298.24"/>
    </edge>
    <edge id="-4229117" from="25116988" to="25116979" priority="4" type="highway.residential">
        <lane id="-4229117_0" index="0" speed="13.89" length="124.45" shape="419.17,367.48 365.05,266.15"/>
    </edge>
    <edge id="-4229119" from="25116991" to="25116982" priority="4" type="highway.residential">
        <lane id="-4229119_0" index="0" speed="13.89" length="124.99" shape="474.11,338.16 422.05,235.23"/>
    </edge>
    <edge id="166518453#0" from="25236458" to="1792929432" priority="4" type="highway.residential">
        <lane id="166518453#0_0" index="0" speed="13.89" length="51.48" shape="279.71,445.77 320.85,423.67"/>
    </edge>
    <edge id="166518453#1" from="1792929432" to="1776031118" priority="4" type="highway.residential">
        <lane id="166518453#1_0" index="0" speed="13.89" length="49.52" shape="320.84,423.67 360.25,402.40"/>
    </edge>
    <edge id="166518734#0" from="315518382" to="315518379" priority="4" type="highway.residential" shape="377.11,540.21 367.74,545.27 337.31,561.80">
        <lane id="166518734#0_0" index="0" speed="13.89" length="45.28" shape="377.89,541.66 368.53,546.73 342.28,560.98"/>
    </edge>
    <edge id="166518734#1" from="315518379" to="1792929428" priority="4" type="highway.residential">
        <lane id="166518734#1_0" index="0" speed="13.89" length="64.44" shape="333.60,558.41 305.12,505.95"/>
    </edge>
    <edge id="166518734#2" from="1792929428" to="25236458" priority="4" type="highway.residential">
        <lane id="166518734#2_0" index="0" speed="13.89" length="63.39" shape="305.12,505.95 277.11,454.46"/>
    </edge>
    <edge id="167574361#0" from="1776031118" to="2992604650" priority="4" type="highway.residential">
        <lane id="167574361#0_0" index="0" speed="13.89" length="28.09" shape="368.62,397.96 389.36,387.17"/>
    </edge>
    <edge id="167574361#1" from="2992604650" to="25116988" priority="4" type="highway.residential">
        <lane id="167574361#1_0" index="0" speed="13.89" length="37.24" shape="389.33,387.19 417.93,371.71"/>
    </edge>
    <edge id="167574361#10" from="1950587933" to="1950587926" priority="4" type="highway.residential">
        <lane id="167574361#10_0" index="0" speed="13.89" length="38.63" shape="654.90,245.89 689.18,228.06"/>
    </edge>
    <edge id="167574361#11" from="1950587926" to="76865083" priority="4" type="highway.residential" shape="689.94,229.52 781.44,181.97 801.05,171.78 840.19,153.21">
        <lane id="167574361#11_0" index="0" speed="13.89" length="168.54" shape="689.18,228.06 780.67,180.51 800.29,170.31 839.48,151.72"/>
    </edge>
    <edge id="167574361#2" from="25116988" to="1774945496" priority="4" type="highway.residential">
        <lane id="167574361#2_0" index="0" speed="13.89" length="32.74" shape="426.28,367.19 450.90,353.88"/>
    </edge>
    <edge id="167574361#3" from="1774945496" to="25116991" priority="4" type="highway.residential">
        <lane id="167574361#3_0" index="0" speed="13.89" length="29.43" shape="450.91,353.88 472.82,342.42"/>
    </edge>
    <edge id="167574361#4" from="25116991" to="1772920726" priority="4" type="highway.residential">
        <lane id="167574361#4_0" index="0" speed="13.89" length="54.63" shape="481.24,338.00 525.28,314.71"/>
    </edge>
    <edge id="167574361#5" from="1772920726" to="292834955" priority="4" type="highway.residential">
        <lane id="167574361#5_0" index="0" speed="13.89" length="18.27" shape="525.26,314.71 541.36,306.06"/>
    </edge>
    <edge id="167574361#6" from="292834955" to="21552170" priority="4" type="highway.residential">
        <lane id="167574361#6_0" index="0" speed="13.89" length="40.26" shape="541.36,306.06 572.74,289.31"/>
    </edge>
    <edge id="167574361#7" from="21552170" to="1950587942" priority="4" type="highway.residential">
        <lane id="167574361#7_0" index="0" speed="13.89" length="51.06" shape="581.12,284.84 621.96,263.12"/>
    </edge>
    <edge id="167574361#8" from="1950587942" to="322550357" priority="4" type="highway.residential">
        <lane id="167574361#8_0" index="0" speed="13.89" length="10.21" shape="621.96,263.12 630.98,258.32"/>
    </edge>
    <edge id="167574361#9" from="322550357" to="1950587933" priority="4" type="highway.residential">
        <lane id="167574361#9_0" index="0" speed="13.89" length="26.96" shape="630.99,258.31 654.91,245.89"/>
    </edge>
    <edge id="216865529#0" from="2261868629" to="25116967" priority="15" type="highway.residential|railway.tram" shape="914.77,469.11 894.60,480.00 875.00,490.79 804.44,528.61">
        <lane id="216865529#0_0" index="0" speed="8.33" length="125.35" shape="915.56,470.56 895.38,481.45 875.79,492.23 807.99,528.57"/>
    </edge>
    <edge id="216865529#1" from="25116967" to="333748501" priority="15" type="highway.residential|railway.tram">
        <lane id="216865529#1_0" index="0" speed="8.33" length="43.63" shape="802.50,531.50 766.66,550.49"/>
    </edge>
    <edge id="216865529#2" from="333748501" to="292834266" priority="15" type="highway.residential|railway.tram" shape="765.88,549.03 729.33,568.94 661.88,605.24 639.01,617.00 624.58,624.50 610.57,631.93 567.45,655.23 564.32,656.85 551.94,663.17">
        <lane id="216865529#2_0" index="0" speed="8.33" length="242.50" shape="766.67,550.48 730.12,570.39 662.66,606.70 639.77,618.47 625.34,625.97 611.35,633.39 568.23,656.68 565.08,658.32 552.69,664.64"/>
    </edge>
    <edge id="216865529#3" from="292834266" to="334011873" priority="15" type="highway.residential|railway.tram" shape="551.94,663.17 489.53,696.00 439.22,721.93">
        <lane id="216865529#3_0" index="0" speed="8.33" length="127.12" shape="552.71,664.63 490.29,697.46 439.97,723.40"/>
    </edge>
    <edge id="216865529#4" from="334011873" to="21552169" priority="15" type="highway.residential|railway.tram">
        <lane id="216865529#4_0" index="0" speed="8.33" length="12.45" shape="439.97,723.40 431.73,727.66"/>
    </edge>
    <edge id="28701862" from="315518379" to="21552169" priority="4" type="highway.residential">
        <lane id="28701862_0" index="0" speed="13.89" length="189.09" shape="341.05,565.18 428.08,724.07"/>
    </edge>
    <edge id="32782176#0" from="21552162" to="25116982" priority="15" type="highway.tertiary|railway.tram">
        <lane id="32782176#0_0" index="0" speed="13.89" length="114.95" shape="518.05,179.37 426.21,229.40"/>
    </edge>
    <edge id="32782176#1" from="25116982" to="2208044270" priority="15" type="highway.tertiary|railway.tram">
        <lane id="32782176#1_0" index="0" speed="13.89" length="23.90" shape="417.86,233.92 401.08,242.96"/>
    </edge>
    <edge id="32782176#2" from="2208044270" to="25116979" priority="15" type="highway.tertiary|railway.tram" shape="400.29,241.51 372.82,256.40 364.24,261.14">
        <lane id="32782176#2_0" index="0" speed="13.89" length="41.05" shape="401.08,242.96 373.61,257.85 369.16,260.31"/>
    </edge>
    <edge id="32782176#3" from="25116979" to="25116973" priority="15" type="highway.tertiary|railway.tram" shape="364.24,261.14 353.32,267.19 306.95,293.29">
        <lane id="32782176#3_0" index="0" speed="13.89" length="65.69" shape="360.84,264.91 354.12,268.63 311.85,292.43"/>
    </edge>
    <edge id="32782176#4" from="25116973" to="21552163" priority="15" type="highway.tertiary|railway.tram">
        <lane id="32782176#4_0" index="0" speed="13.89" length="99.91" shape="302.72,297.41 223.72,339.39"/>
    </edge>
    <edge id="32782176#5" from="21552163" to="2647425446" priority="15" type="highway.tertiary|railway.tram" shape="218.73,340.17 81.75,415.93 72.71,420.89">
        <lane id="32782176#5_0" index="0" speed="13.89" length="166.85" shape="215.31,343.95 82.54,417.37 73.49,422.34"/>
    </edge>
    <edge id="32782176#6" from="2647425446" to="1459472879" priority="15" type="highway.tertiary|railway.tram">
        <lane id="32782176#6_0" index="0" speed="13.89" length="6.17" shape="73.47,422.35 68.01,425.22"/>
    </edge>
    <edge id="32782176#7" from="1459472879" to="536672" priority="15" type="highway.tertiary|railway.tram">
        <lane id="32782176#7_0" index="0" speed="13.89" length="29.61" shape="68.04,425.20 42.18,439.61"/>
    </edge>
    <edge id="4073147#0" from="21552164" to="21552166" priority="4" type="highway.residential" shape="0.00,358.96 32.01,341.03 69.45,320.05 143.33,278.78 176.88,259.88">
        <lane id="4073147#0_0" index="0" speed="13.89" length="202.74" shape="-0.81,357.52 31.20,339.59 68.65,318.61 142.53,277.34 171.83,260.83"/>
    </edge>
    <edge id="4073147#1" from="21552166" to="25116970" priority="4" type="highway.residential">
        <lane id="4073147#1_0" index="0" speed="13.89" length="95.92" shape="180.03,256.14 254.77,212.77"/>
    </edge>
    <edge id="4073147#2" from="25116970" to="2277954502" priority="4" type="highway.residential" shape="259.84,211.74 344.65,165.43 474.39,93.26 554.18,48.56 590.90,28.14 616.31,14.67 629.34,7.41 640.38,0.00">
        <lane id="4073147#2_0" index="0" speed="13.89" length="435.54" shape="263.17,208.04 343.86,163.98 473.59,91.81 553.37,47.12 590.10,26.69 615.54,13.21 628.54,5.97 639.46,-1.37"/>
    </edge>
    <edge id="4073148#0" from="21552166" to="391261667" priority="4" type="highway.residential">
        <lane id="4073148#0_0" index="0" speed="13.89" length="32.09" shape="180.58,263.43 193.16,287.58"/>
    </edge>
    <edge id="4073148#1" from="391261667" to="21552163" priority="4" type="highway.residential">
        <lane id="4073148#1_0" index="0" speed="13.89" length="58.46" shape="193.16,287.58 217.98,335.18"/>
    </edge>
    <edge id="4073148#2" from="21552163" to="25236458" priority="4" type="highway.residential">
        <lane id="4073148#2_0" index="0" speed="13.89" length="123.54" shape="222.43,343.67 275.51,444.49"/>
    </edge>
    <edge id="4073149" from="21552170" to="21552162" priority="4" type="highway.residential">
        <lane id="4073149_0" index="0" speed="13.89" length="128.47" shape="574.00,285.03 520.24,180.05"/>
    </edge>
    <edge id="4073151#0" from="21552172" to="322885648" priority="4" type="highway.residential">
        <lane id="4073151#0_0" index="0" speed="13.89" length="27.62" shape="718.31,353.74 737.64,344.63"/>
    </edge>
    <edge id="4073151#1" from="322885648" to="25873171" priority="4" type="highway.residential" shape="738.44,346.08 891.39,261.60 936.54,241.23">
        <lane id="4073151#1_0" index="0" speed="13.89" length="224.26" shape="737.73,344.58 890.59,260.15 935.86,239.72"/>
    </edge>
    <edge id="4229097#0" from="25116967" to="1774945517" priority="4" type="highway.residential" spreadType="center">
        <lane id="4229097#0_0" index="0" speed="13.89" length="59.20" shape="802.25,524.37 777.23,476.03"/>
    </edge>
    <edge id="4229097#1" from="1774945517" to="1846542086" priority="4" type="highway.residential" spreadType="center">
        <lane id="4229097#1_0" index="0" speed="13.89" length="5.81" shape="777.23,476.03 774.59,470.86"/>
    </edge>
    <edge id="4229097#2" from="1846542086" to="21552172" priority="4" type="highway.residential" spreadType="center">
        <lane id="4229097#2_0" index="0" speed="13.89" length="131.29" shape="774.59,470.86 718.30,360.87"/>
    </edge>
    <edge id="4229098" from="25236455" to="25236458" priority="4" type="highway.residential">
        <lane id="4229098_0" index="0" speed="13.89" length="202.94" shape="95.16,541.06 271.28,450.21"/>
    </edge>
    <edge id="4229116#0" from="25116970" to="391261683" priority="4" type="highway.residential">
        <lane id="4229116#0_0" index="0" speed="13.89" length="40.43" shape="263.57,215.31 280.00,246.69"/>
    </edge>
    <edge id="4229116#1" from="391261683" to="25116973" priority="4" type="highway.residential" shape="278.59,247.55 301.34,287.07 306.95,293.29">
        <lane id="4229116#1_0" index="0" speed="13.89" length="53.98" shape="280.07,246.82 302.68,286.10 304.38,287.98"/>
    </edge>
    <edge id="4229116#2" from="25116973" to="1776031118" priority="4" type="highway.residential">
        <lane id="4229116#2_0" index="0" speed="13.89" length="122.97" shape="310.65,296.68 364.41,396.63"/>
    </edge>
    <edge id="4229117" from="25116979" to="25116988" priority="4" type="highway.residential">
        <lane id="4229117_0" index="0" speed="13.89" length="124.45" shape="367.96,264.59 422.08,365.93"/>
    </edge>
    <edge id="4229119" from="25116982" to="25116991" priority="4" type="highway.residential">
        <lane id="4229119_0" index="0" speed="13.89" length="124.99" shape="424.99,233.74 477.06,336.67"/>
    </edge>

    <tlLogic id="1459472879" type="static" programID="0" offset="0">
        <phase duration="31" state="GG"/>
        <phase duration="4" state="yy"/>
        <phase duration="31" state="GG"/>
        <phase duration="4" state="yy"/>
    </tlLogic>
    <tlLogic id="21552162" type="static" programID="0" offset="0">
        <phase duration="31" state="G"/>
        <phase duration="4" state="y"/>
        <phase duration="31" state="G"/>
        <phase duration="4" state="y"/>
    </tlLogic>
    <tlLogic id="292834955" type="static" programID="0" offset="0">
        <phase duration="31" state="GG"/>
        <phase duration="4" state="yy"/>
        <phase duration="31" state="GG"/>
        <phase duration="4" state="yy"/>
    </tlLogic>

    <junction id="1459472879" type="traffic_light" x="67.24" y="423.76" incLanes="32782176#6_0 -32782176#7_0" intLanes="" shape="68.73,426.64 65.72,420.88 68.84,426.59">
        <request index="0" response="00" foes="00"/>
        <request index="1" response="00" foes="00"/>
    </junction>
    <junction id="1772920726" type="priority" x="526.05" y="316.17" incLanes="-167574361#5_0 167574361#4_0" intLanes="" shape="527.59,319.03 524.51,313.31 527.57,319.04">
        <request index="0" response="00" foes="00"/>
        <request index="1" response="00" foes="00"/>
    </junction>
    <junction id="1774945496" type="priority" x="451.67" y="355.34" incLanes="-167574361#3_0 167574361#2_0" intLanes="" shape="453.17,358.22 450.16,352.46 453.22,358.19">
        <request index="0" response="00" foes="00"/>
        <request index="1" response="00" foes="00"/>
    </junction>
    <junction id="1774945517" type="priority" x="777.23" y="476.03" incLanes="4229097#0_0" intLanes="" shape="775.81,476.77 778.66,475.30 775.81,476.76">
        <request index="0" response="0" foes="0"/>
    </junction>
    <junction id="1776031118" type="priority" x="365.20" y="401.59" incLanes="-167574361#0_0 4229116#2_0 166518453#1_0" intLanes="" shape="370.88,402.31 367.88,396.54 365.82,395.88 360.10,398.96 359.49,400.99 362.57,406.71">
        <request index="0" response="000000" foes="001000"/>
        <request index="1" response="110000" foes="111000"/>
        <request index="2" response="100000" foes="100000"/>
        <request index="3" response="100011" foes="100011"/>
        <request index="4" response="000000" foes="000010"/>
        <request index="5" response="000000" foes="001110"/>
    </junction>
    <junction id="1792929428" type="priority" x="306.57" y="505.16" incLanes="166518734#1_0 -166518734#2_0" intLanes="" shape="303.72,506.71 309.43,503.61 303.72,506.72">
        <request index="0" response="00" foes="00"/>
        <request index="1" response="00" foes="00"/>
    </junction>
    <junction id="1792929432" type="priority" x="321.63" y="425.12" incLanes="-166518453#1_0 166518453#0_0" intLanes="" shape="323.17,427.98 320.08,422.27 323.17,427.99">
        <request index="0" response="00" foes="00"/>
        <request index="1" response="00" foes="00"/>
    </junction>
    <junction id="1846542086" type="priority" x="774.59" y="470.86" incLanes="4229097#1_0" intLanes="" shape="773.16,471.59 776.01,470.13 773.16,471.59">
        <request index="0" response="0" foes="0"/>
    </junction>
    <junction id="1950587926" type="priority" x="689.94" y="229.52" incLanes="-167574361#11_0 167574361#10_0" intLanes="" shape="691.44,232.41 688.44,226.64 691.44,232.41">
        <request index="0" response="00" foes="00"/>
        <request index="1" response="00" foes="00"/>
    </junction>
    <junction id="1950587933" type="priority" x="655.67" y="247.35" incLanes="-167574361#10_0 167574361#9_0" intLanes="" shape="657.17,250.23 654.17,244.47 657.16,250.23">
        <request index="0" response="00" foes="00"/>
        <request index="1" response="00" foes="00"/>
    </junction>
    <junction id="1950587942" type="priority" x="622.74" y="264.57" incLanes="-167574361#8_0 167574361#7_0" intLanes="" shape="624.26,267.44 621.21,261.70 624.26,267.44">
        <request index="0" response="00" foes="00"/>
        <request index="1" response="00" foes="00"/>
    </junction>
    <junction id="21552162" type="traffic_light" x="520.19" y="176.33" incLanes="4073149_0 -32782176#0_0" intLanes="" shape="518.82,180.78 524.60,177.81 515.71,175.07 518.82,180.78">
        <request index="0" response="0" foes="0"/>
    </junction>
    <junction id="21552163" type="priority" x="218.73" y="340.17" incLanes="-4073148#2_0 32782176#4_0 4073148#1_0 -32782176#5_0" intLanes="" shape="218.10,345.95 223.85,342.92 224.47,340.80 221.42,335.06 219.40,334.44 213.64,337.44 212.94,339.66 216.09,345.35">
        <request index="0" response="000000010000" foes="000100010000"/>
        <request index="1" response="111000110000" foes="111100110000"/>
        <request index="2" response="110011110000" foes="110011110000"/>