<?xml version="1.0" encoding="UTF-8"?>

<!-- generated on Mon Jul  4 20:43:37 2016 by SUMO duarouter Version 0.24.0
<?xml version="1.0" encoding="UTF-8"?>

<configuration xmlns:xsi="http://www.w3.org/2001/XMLSchema-instance" xsi:noNamespaceSchemaLocation="http://sumo.dlr.de/xsd/duarouterConfiguration.xsd">

    <input>
        <net-file value="pisek-all/pisek-all.net.xml"/>
        <trip-files value="pisek-all/pisek-all.trips.xml"/>
    </input>

    <output>
        <output-file value="pisek-all/pisek-all.rou.xml"/>
    </output>

    <processing>
        <ignore-errors value="true"/>
        <routing-algorithm value="astar"/>
    </processing>

    <report>
        <no-warnings value="true"/>
    </report>

</configuration>
-->

<routes xmlns:xsi="http://www.w3.org/2001/XMLSchema-instance" xsi:noNamespaceSchemaLocation="http://sumo.dlr.de/xsd/routes_file.xsd">
    <vehicle id="0" depart="0.00">
        <route edges="233870212#1 233870212#2 233870212#3 233870212#4 230518889#0 230518889#1 230518889#2 230518889#3 26263186#0 26263186#1 26263186#2 26263187#0 26263187#1 -164497072#2 -164497072#1 -164497072#0 -29977360 164497071 -164497073#3 -164497073#2 -164497073#1 -164497073#0 -26263193 -199606128 -26263192 -28236351#6 -28236351#5 -28236351#4 -28236351#3 -28236351#2 -28236351#1 -28236351#0 -181447038 -181447037 -28236347#1 -28236347#0 -133638593 -26263191#1 -26263191#0 215626722#0 -230518908#1 -230518908#0 28322738#0 28322738#1 -28322736#2"/>
    </vehicle>
    <vehicle id="1" depart="0.10">
        <route edges="28322652#4 -268996021 -28322642#1 -28322642#0 -28322659#1 -28322659#0 28244731#0 28244731#1 174300547#0 174300547#1 174300546 28244732 28244733 28244715 -28244719#3 -28244719#2 -28244719#1 -28244719#0 28237022 28237024#0 28237024#1 181447034#0 181447034#1 28237039#0 28237039#1 28237039#2 -28237041"/>
    </vehicle>
    <vehicle id="3" depart="0.30">
        <route edges="28220771 303431348 164577622 28236371#0 28236371#1 28236371#2 28236371#3 28236371#4 28236371#5 -28236364#1 -28236367"/>
    </vehicle>
    <vehicle id="4" depart="0.40">
        <route edges="197647797 9577751 233870212#0 233870212#1 233870212#2 233870212#3 233870212#4 230518889#0 230518889#1 230518889#2 230518889#3 26263186#0 26263186#1 26263189 43875920 130767164 25171879 25171878 28322728 28322727#0 28322727#1 28322727#2 28322727#3 28322727#4 28785886 28371280 28371279 130767156 35081091 111528571 111528563#4 111528573#0 111528573#1 28371264 28371258 111528565#0 111528565#1 111528572 28322712#0 28322712#1 28322644 28322647 294005305#0 294005305#1 297579944#0 297579944#1"/>
    </vehicle>
    <vehicle id="5" depart="0.50">
        <route edges="28244714 -221586632#2 -221586632#1 -221586632#0 -80581419 215626718 -28220660#2 -28220660#1 28236414#0 28236414#1 28236414#2 28236414#3 28236414#4 28236414#5 28236414#6 28236405#0 28236405#1 181447037 181447038 28236351#0 28236351#1 28236351#2 28236351#3 28236351#4 28236351#5 28236351#6 26263192 199606128 26263193 164497073#0 164497073#1 164497073#2 164497073#3 29977359#0 -25144681#7 -25144681#6 -25144681#5 -25144681#4 -25144681#3 -25144681#2 -25144681#1 -25144681#0 -26263190#2 -26263190#1 -26263190#0 30436970#0 30436970#1 30436970#2"/>
    </vehicle>
    <vehicle id="6" depart="0.60">
        <route edges="28363688#0 28363688#1 28363688#2 28363688#3 28363688#4 28363688#5 28363688#6 28322720#0 28322720#1 28322720#2 28322720#3 28322720#4 28322720#5 28322720#6 28322720#7 28322720#8 28322720#9 174300540#0 -28322722 -28322660#1 -28322660#0 28322669 28785890#2 28322735 28322668 25205971 25205973#0 26263188 -26263184 -164497072#2 -164497072#1 -164497072#0 -29977360 164497071 -164497073#3 -164497073#2 -164497073#1 -164497073#0 -26263193 -199606128 -26263192 -28236351#6 -28236351#5 -28236351#4 -28236351#3 -28236351#2 -28236351#1 -28236351#0 -181447038 -181447037 -28236347#1 -28236347#0 26858736 181447042#0 181447042#1 181447042#2 181447042#3 181447042#4 28236398#0 28236398#1"/>
    </vehicle>
    <vehicle id="8" depart="0.80">
        <route edges="28363688#0 28363688#1 28363688#2 28363697#0 28363697#1 28363697#2 28363697#3 28363697#4 28363697#5 -28363704#3 28363694 28363695#0 28363695#1 28363695#2 28363693#2 28363704#1"/>
    </vehicle>
    <vehicle id="11" depart="1.10">
        <route edges="-93379438#1 230518891#3 230518891#4 233870212#1 233870212#2 233870212#3 233870212#4 230518889#0 230518889#1 230518889#2 230518889#3 26263186#0 26263186#1 26263186#2 26263187#0 26263187#1 -164497072#2 -164497072#1 -164497072#0 -29977360 164497071 -164497073#3 -164497073#2 -164497073#1 -164497073#0 -26263193 -199606128 -26263192 -28236351#6 -28236351#5 -28236351#4 -28236351#3 -28236351#2 -28236351#1 -28236351#0 -181447038 -181447037 -28236347#1 -28236347#0 -133638593 -26263191#1 -26263191#0 215626722#0 -230518908#1 -230518908#0 -272527248 -272527247#1 -272527247#0 -194847483 -80456654#1 -80456654#0 80456651#4 -28236429#1 -28236429#0 -28236416 -80581420#2 -80581420#1 -80581420#0"/>
    </vehicle>
    <vehicle id="12" depart="1.20">
        <route edges="28236438 215626706#0 215626706#1 28236442 215626705#0 215626705#1 28236401 28236414#0 28236414#1 28236414#2 28236414#3 28236414#4 28236414#5 28236414#6 28236403#0 28236403#1 28236403#2 -133638593 -26263191#1 -26263191#0 215626722#0 -230518908#1 -230518908#0 -272527248 -272527247#1 -272527247#0 -194847483 -80456654#1"/>
    </vehicle>
    <vehicle id="13" depart="1.30">
        <route edges="52050336 28244732 28244733 28244715 -28244719#3 -28244719#2 -28244719#1 -28244719#0 -111528568#9 -111528568#8 -111528568#7 -111528568#6 -111528568#5 -111528568#4 -111528568#3 -111528568#2 -111528568#1 -111528568#0 111528565#3 -28371258 -28371264 -111528573#1 -111528573#0 111528563#0 111528563#1 111528567 111528564#0 111528564#1 111528564#2 111528564#3 111528564#4 111528564#5 230518901#0 230518901#1 230518901#2 230518901#3 230518901#4 230518901#5 230518901#6 230518901#7 230518901#8 230518901#9 230518901#10 230518901#11 230518894#0 230518894#1 230518894#2 28371271#0 28371271#1 -28371269#2 -28371269#1"/>
    </vehicle>
    <vehicle id="14" depart="1.40">
        <route edges="215626706#0 111528568#8 111528568#9 28237022 27457818#0 27457818#1 27457818#2 27457818#3 27457818#4 164497031 164497032#0 164497032#1 28220647#0 28220648#0 28220648#1 28236351#1 28236351#2 28236351#3 28236351#4 28236351#5 28236351#6 26263192 199606128 26263193 164497073#0 28322681#0 28322681#1 28322681#2"/>
    </vehicle>
    <vehicle id="15" depart="1.50">
        <route edges="220783294#1 197582533#1 -230518894#3 -230518894#2 -230518894#1 -230518894#0 -230518901#11 -230518901#10 -230518901#9 -230518901#8 -230518901#7 -230518901#6 -230518901#5 -230518901#4 -230518901#3 -230518901#2 -230518901#1 -230518901#0 -111528564#5 -111528564#4 -111528564#3 -111528564#2 -111528564#1 -111528564#0 -111528567 111528563#2 111528563#3 -111528571 -35081091 -130767156 -28371279 28371277 28785887#1 26262923 26262926 130767160 364466391 26262931 26262928 13857329#0 26262932 268996036#0 268996036#1 268996036#2 268996036#3 268996036#4 80456651#1 80456651#2 80456651#3 80456654#0 80456654#1 194847483 272527247#0 272527247#1 272527248 28322738#0 194847470#0 194847470#1"/>
    </vehicle>
    <vehicle id="16" depart="1.60">
        <route edges="28363710 93381574#0 93381574#1 -182251111#1 -182251111#0 182251107 28363693#0 28363693#1 28363693#2 28363704#1 28363704#2 28363704#3 28363704#4 28363704#5 28363704#6 197639519#0 197639519#1 197639519#2 197639519#3 197639519#4 -28322726 28322703 28322727#2 28322727#3 28322727#4 28785886 28371280 28371279 130767156 35081091 111528571 111528563#4 111528573#0 111528573#1 28371264 28371258 111528565#0 -28371281#3 -28371281#2 -28371281#1"/>
    </vehicle>
    <vehicle id="17" depart="1.70">
        <route edges="-28236364#2 -28236371#5 -28236371#4 -28236371#3 -28236371#2 -28236371#1 -28236371#0 303431349#0 303431349#1 303431349#2 28236353#5 28236353#6 26263192 199606128 26263193 164497073#0 164497073#1 164497073#2 164497073#3 29977359#0 29977359#1 29977360 164497072#0 164497072#1 164497072#2 -26263187#1 -26263187#0 -26263186#2 26263189 43875920 130767164 25171879 25171878 28322728 28322727#0 28322727#1 28322727#2 28322727#3 28322727#4 28785886 28371280 28371279 130767156 35081091 111528571 111528563#4 111528563#0 111528563#1 111528567 111528564#0 111528564#1 111528564#2 111528564#3 111528564#4 111528564#5 230518901#0 230518901#1 230518901#2 230518901#3 230518901#4 230518901#5 230518901#6 230518901#7 230518901#8 230518901#9 230518901#10 230518901#11 230518894#0 230518894#1 230518894#2 230518894#3 230518904#0 230518904#1"/>
    </vehicle>
    <vehicle id="18" depart="1.80">
        <route edges="230518892 -93380141#2 -93380141#1 -93380141#0 233870212#2 233870212#3 233870212#4 230518889#0 230518889#1 230518889#2 230518889#3 26263186#0 26263186#1 26263189 43875920 130767164 25171879 25171878 28322728 28322727#0 28322702 28322726 28322724 28322723 28322730 28322729 215626703 28236438 -174300547#1 -174300547#0 28244735#0 28244735#1 28244735#2 111528568#7 -215626706#0"/>
    </vehicle>
    <vehicle id="19" depart="1.90">
        <route edges="28322652#1 28322652#2 28322652#3 -28322642#2 -28322642#1 -28322642#0 -28322659#1 -28322659#0 28244731#0 28244731#1 174300547#0 174300547#1 174300546 28244732 28244733 28244715 -28244719#3 -28244719#2 -28244719#1 -28244719#0 28237022 28237024#0 28237024#1 181447034#0 28237025"/>
    </vehicle>
    <vehicle id="20" depart="2.00">
        <route edges="233870214#1 28323400 -233870212#2 -233870212#1 -233870212#0 -9577751 -197647797"/>
    </vehicle>
    <vehicle id="21" depart="2.10">
        <route edges="-28200123#1 28237015 315110068 28236414#5 28236414#6 28236403#0 28236403#1 28236403#2 -133638593 -26263191#1 -26263191#0 215626722#0 -230518908#1 -230518908#0 -272527248 -272527247#1 -272527247#0 -194847483 28322700#0 28322700#1 194847474#0 194847474#1 195936121#0 195936121#1 -194945007 -194945009#5 -194945009#4 -194945009#3"/>
    </vehicle>
    <vehicle id="22" depart="2.20">
        <route edges="28095057#1 28095058#0 28095058#1 28095058#2 28095058#3 -195221851#2 -195221851#1 -195221851#0 -28322681#4 -28322681#3 -28322681#2 28322683#0 28322683#1 28322743#0 28322743#1 28322743#2 164497073#2 164497073#3 29977359#0 29977359#1 29977360 164497072#0 164497072#1 164497072#2 -26263187#1 -26263187#0 -26263186#2 26263189 43875920 130767164 25171879 25171878 28322728 28322727#0 28322727#1 28322727#2 28322727#3 28322727#4 28785886 28371280 28371279 130767156 35081091 111528571 111528563#4 111528563#0 111528563#1 111528567 111528564#0 111528564#1 111528564#2 111528564#3 111528564#4 111528564#5 230518901#0 230518901#1 230518901#2 230518901#3 230518901#4 230518901#5 230518901#6 230518901#7 230518901#8 230518901#9 230518901#10 230518901#11 230518894#0 230518894#1 230518894#2 230518894#3 230518904#0 230518904#1"/>
    </vehicle>
    <vehicle id="23" depart="2.30">
        <route edges="-28322675#9 -28322675#8 -28322675#7 -28322675#6 -28322675#5 -28322675#4 -28322675#3 -28322675#2 -28322675#1 -28322675#0 -164497072#1 -164497072#0 -29977360 164497071 -164497073#3 -164497073#2 -164497073#1 -164497073#0 -26263193 -199606128 -26263192 -28236351#6 -28236351#5 -28236351#4 -28236351#3 -28236351#2 -28236351#1 -28236351#0 -181447038 -181447037 -28236347#1 -28236347#0 -133638593 -26263191#1 -26263191#0 215626722#0 215626722#1 29976826#0 29976826#1 29976823#0 29976823#1 28322706 28322713#0 28322713#1 28322713#2 28322717 163005689#2 163005669#0 163005669#1"/>
    </vehicle>
    <vehicle id="24" depart="2.40">
        <route edges="195936145#1 221586631 -221586635#2 -221586623 -80456662#3 -80456662#2 -80456662#1 -80456662#0 80456651#3 80456651#4 -28236429#1 -28236429#0 -28236416 -80581420#2 -80581420#1 -80581420#0 80581418#2 215626718 -28220660#2 -28220660#1 -28220660#0 -28237022 28244719#0 28244719#1 28244719#2 28244719#3 -28244715 -28244733 -28244732 -52050336 -215626703 -28322729 -28322730 -28322723 -28322724 -197639519#4 -197639519#3 -197639519#2 -197639519#1 -197639519#0 -28363704#6 -28363704#5 -28363704#4 -28363697#5 -28363697#4 28363699#0 28363699#1"/>
    </vehicle>
    <vehicle id="25" depart="2.50">
        <route edges="197582533#1 -230518894#3 -230518894#2 -230518894#1 -230518894#0 -230518901#11 -230518901#10 -230518901#9 -230518901#8 -230518901#7 -230518901#6 -230518901#5 -230518901#4 -230518901#3 -230518901#2 -230518901#1 -230518901#0 -111528564#5 -111528564#4 -111528564#3 -111528564#2 -111528564#1 -111528564#0 -111528567 111528563#2 111528563#3 -111528571 -35081091 -130767156 -28371279 28371277 28785887#1 26262923 26262926 130767160 364466391 26262931 26262928 13857329#0 26262932 268996036#0 268996036#1 268996036#2 268996036#3 268996036#4 80456651#1 80456651#2 80456651#3 80456654#0 80456654#1 28322700#0 28322700#1 28322708#0 28322708#1 28322698#1 28322698#2 -157937238#1 -195936136#1 -195936136#0 -143469392#3 -143469392#2"/>
    </vehicle>
    <vehicle id="26" depart="2.60">
        <route edges="-220783294#1 -230518904#0 -230518894#3 -230518894#2 -230518894#1 -230518894#0 -230518901#11 -230518901#10 -230518901#9 -230518901#8 -230518901#7 -230518901#6 -230518901#5 -230518901#4 -230518901#3 -230518901#2 -230518901#1 -230518901#0 -111528564#5 -111528564#4 -111528564#3 -111528564#2 -111528564#1 -111528564#0 -111528567 111528563#2 111528563#3 -111528571 -35081091 -130767156 -28371279 28371277 28785887#1 26262923 26262926"/>
    </vehicle>
    <vehicle id="27" depart="2.70">
        <route edges="265482462#1 265482462#2 265482462#3 265482462#4 162842864#2 162842864#3 28322686#0 28322686#1 25144681#6 25144681#7 29977359#1 164497071 -164497073#3 -164497073#2 -164497073#1 -164497073#0 -26263193 -199606128 -26263192 -28236351#6 -28236351#5 -28236351#4 -28236351#3 -28236351#2 -28236351#1 -28236351#0 -181447038 -181447037 -28236405#1 -28236405#0 -28236414#6 -28236414#5 315110066#0 -28244706#3 -28244701#1 -28244701#0 -28244700#5 -28244700#4 -28244700#3 -28244700#2 -28244700#1"/>
    </vehicle>
    <vehicle id="28" depart="2.80">
        <route edges="-199606128 -26263192 -28236351#6 -28236351#5 -28236351#4 -28236351#3 -28236351#2 -28236351#1 -28236351#0 -181447038 -181447037 -28236347#1 -28236347#0 -28236403#2 -28236403#1 -28236403#0 28236405#0 28236405#1 181447037 181447038 28236351#0"/>
    </vehicle>
    <vehicle id="29" depart="2.90">
        <route edges="-28095057#1 -28095057#0 25144681#3 25144681#4 25144681#5 25144681#6 25144681#7 29977359#1 29977360 164497072#0 164497072#1 164497072#2 -26263187#1 -26263187#0 -26263186#2 26263189 43875920 130767164 25171879 25171878 28322728 28322727#0 28322702 28322726 -197639519#4 -197639519#3 -197639519#2 -197639519#1 -197639519#0 -28363704#6 -28363704#5 -28363704#4 -28363704#3 -28363704#2 -28363704#1 -28363693#2 -28363693#1 -28363693#0 181441038#0"/>
    </vehicle>
    <vehicle id="30" depart="3.00">
        <route edges="28236414#5 -28237017#0 -28200123#1 -28200123#0 -27457818#4 -27457818#3 -27457818#2 -27457818#1 -27457818#0 -28237022 -111528568#9 -111528568#8 -111528568#7 -111528568#6 -111528568#5 -111528568#4 -111528568#3 -111528568#2 -111528568#1 -111528568#0 111528565#3 -28371258 -28371264 -111528573#1 -111528573#0 111528563#0 111528563#1 111528567 111528564#0 111528564#1 111528564#2 111528564#3 111528564#4 111528564#5 230518901#0 230518901#1 230518901#2 230518901#3 230518901#4 230518901#5 230518901#6 230518901#7 230518901#8 230518901#9 230518901#10 230518901#11 230518894#0 230518894#1 230518894#2 230518894#3 230518904#0 230518904#1"/>
    </vehicle>
    <vehicle id="32" depart="3.20">
        <route edges="-28244700#5 -28244700#4 -28244700#3 -28244700#2 -28244700#1 -28244700#0 -28244710#3 -28244710#2 -315110066#2 -315110066#1 -315110066#0 -28236414#4 -28236414#3 -28236414#2 -28236414#1 -28236414#0 -28236401 -215626705#1 -215626705#0 -28236442 28322690 -28322694 -111528568#4 -111528568#3 -111528568#2 -111528568#1 -111528568#0 111528565#3 -28371258"/>
    </vehicle>
    <vehicle id="33" depart="3.30">
        <route edges="28322736#0 -28322699#1 -28322708#0 -28322700#1 -28322700#0 -80456654#1 -80456654#0 80456651#4 -28236429#1 -28236429#0 -28236416 -80581420#2 -80581420#1 -80581420#0 80581418#2 215626718 -28220660#2 -28220660#1 -28236401 -215626705#1 -215626705#0 -28236442 28322690 -28322694 -111528568#4 -111528568#3 28322654#0 -230518895#1"/>
    </vehicle>
    <vehicle id="34" depart="3.40">
        <route edges="-26263191#1 -26263191#0 215626722#0 215626722#1 29976824#0 29976824#1 26263191#0 26263191#1 133638593 28236347#0 28236347#1 181447037 181447038 28236351#0 28236351#1 28236351#2"/>
    </vehicle>
    <vehicle id="35" depart="3.50">
        <route edges="-29097952#1 -29097952#0 9577751 233870212#0 233870212#1 233870212#2 233870212#3 233870212#4 230518889#0 230518889#1 230518889#2 230518889#3 26263186#0 26263186#1 26263189 43875920 130767164 25171879 25171878 28322728 28322727#0 28322702 28322726 28322724 28322723 28322730 28322729 215626703 28236438 -174300547#1 -174300547#0 -28244731#1 -28244731#0 28322659#0 28322659#1 28322659#2 28322659#3 28322659#4"/>
    </vehicle>
    <vehicle id="36" depart="3.60">
        <route edges="230518891#2 230518891#3 230518891#4 233870212#1 233870212#2 233870212#3 233870212#4 230518889#0 230518889#1 230518889#2 230518889#3 26263186#0 26263186#1 26263186#2 26263187#0 26263187#1 -164497072#2 -164497072#1 -164497072#0 -29977360 164497071 29977359#0 -25144681#7 28322680 265482462#0 265482462#1 265482462#2 265482462#3 265482462#4 162842864#2 162842864#3 28322744 -28322746 -28322745 -195221851#2"/>
    </vehicle>
    <vehicle id="38" depart="3.80">
        <route edges="28095062#0 28095062#1 28095062#2 28095062#3 28095059 -28220770#0 -28236351#0 -181447038 -181447037 -28236347#1 -28236347#0 -133638593 -26263191#1 -26263191#0 215626722#0 215626722#1 29976824#0 29976825#0 29976825#1 29976825#2 163005665#0"/>
    </vehicle>
    <vehicle id="39" depart="3.90">
        <route edges="-263818086#1 -263818086#0 -28236397#0 -30473130#1 -30473130#0 28230754 193548910 28220649 28236351#3 28236351#4 28236351#5 28236351#6 26263192 199606128 26263193 164497073#0 164497073#1 164497073#2 164497073#3 29977359#0 29977359#1 29977360 164497072#0 164497072#1 164497072#2 -26263187#1 -26263187#0 -26263186#2 -26263186#1 -26263186#0 -230518889#3 -230518889#2 -230518889#1 -230518889#0 -233870212#4 -233870212#3 -233870212#2 -233870212#1 -233870212#0 -9577751 29097952#0 232908023"/>
    </vehicle>
    <vehicle id="40" depart="4.00">
        <route edges="197647797 9577751 233870212#0 233870212#1 233870212#2 233870212#3 233870212#4 230518889#0 230518889#1 230518889#2 230518889#3 26263186#0 26263186#1 26263189 43875920 130767164 25171879 25171878 28322728"/>
    </vehicle>
    <vehicle id="41" depart="4.10">
        <route edges="28322641#0 28322652#3 -28322642#2 -28322642#1 -28322642#0 -28322659#1 -28322659#0 28244731#0 28244731#1 174300547#0 174300547#1 -28236438 -215626703 -197639518#2 -197639518#1 -197639518#0 -161161304 52050334 174300540#0 -28322722 -28322660#1 -28322660#0 28322669 28785890#2 28322735 28322668 25205971 25205973#0 25205973#1 25205973#2"/>
    </vehicle>
    <vehicle id="42" depart="4.20">
        <route edges="-294005305#1 -294005305#0 -28322647 -28322644 -28322712#1 -28322712#0 -111528572 111528565#2 111528568#0 -28244738#1 -28244736 28244737#1 28244731#0 28244731#1 174300547#0 174300547#1 -28236438 -215626703 -28322729 -28322730 -28322723 -28322724 -197639519#4 -197639519#3 -197639519#2 -197639519#1 -197639519#0 -28363704#6 -28363704#5 -28363704#4 -28363697#5 -28363697#4 -28363697#3 28363681"/>
    </vehicle>
    <vehicle id="43" depart="4.30">
        <route edges="111528568#1 28244737#0 28244737#1 28244731#0 28244731#1 174300547#0 174300547#1 -28236438 -215626703 -197639518#2 -197639518#1 -197639518#0 -161161304 52050334 174300540#0 -28322722 -28322660#1 -28322660#0 28322669 28785890#2 28322735 28322668 25205971 25205973#0 26263188 -26263184 -26263187#1 -26263187#0 -26263186#2 -26263186#1 -26263186#0 -230518889#3 -230518889#2 -230518889#1 -230518889#0 -233870212#4 28323391#3 28323391#4 28323391#5 28323391#6 230518889#0 230518889#1"/>
    </vehicle>
    <vehicle id="44" depart="4.40">
        <route edges="-197582533#0 28363709#0 28363709#1 28363709#2 28363709#3 28363709#4 28363704#0 -28363693#2 -28363695#2 28363682#0"/>
    </vehicle>
    <vehicle id="45" depart="4.50">
        <route edges="-337950379 -337950381 -337950380 268996101#1 268996101#2 28095050#0 28095050#1 25144681#2 25144681#3 25144681#4 25144681#5 25144681#6 25144681#7 29977359#1 164497071 -164497073#3 -164497073#2 -164497073#1 -164497073#0 -26263193 -199606128 -26263192 -28236351#6 -28236351#5 -28236351#4 -28236351#3 -28236351#2 -28236351#1 -28236351#0 -181447038 -181447037 -28236405#1 -28236405#0 -28236414#6 -28236414#5 315110066#0 315110066#1"/>
    </vehicle>
    <vehicle id="46" depart="4.60">
        <route edges="28323399 233870214#0 28323402 233870213#2 233870212#2 233870212#3 233870212#4 230518889#0 230518889#1 230518889#2 230518889#3 26263186#0 26263186#1 26263189 43875920 130767164 25171879 25171878 28322728 28322727#0 28322727#1 28322727#2 28322727#3 28322727#4 28785886 28371280 28371279 130767156 35081091 111528571 111528563#4 111528563#0 -363348557#2 -363348557#1 -363348557#0"/>
    </vehicle>
    <vehicle id="47" depart="4.70">
        <route edges="-80456654#1 -80456654#0 80456651#4 80456651#5 80456651#0 80456651#1 80456651#2 80456651#3 80456654#0 80456654#1 194847483 272527247#0 272527247#1 272527248 230518908#0 230518908#1 215626722#1 29976824#0 29976824#1 26263191#0 26263191#1 133638593 28236347#0 28236347#1 181447037 181447038 28236351#0 28236351#1 28236351#2 28236351#3 28236351#4 28236351#5 28236351#6 26263192 199606128 26263193 164497073#0 164497073#1 164497073#2 164497073#3 29977359#0 -25144681#7 -25144681#6 -25144681#5 -25144681#4 -25144681#3 -25144681#2 -28095050#1 -28095050#0 -268996101#2 -268996101#1 337950380 337950381 337950379"/>
    </vehicle>
    <vehicle id="48" depart="4.80">
        <route edges="-182251108#0 -182251112#5 -182251112#4 -182251112#3 -182251112#2 -182251112#1 -182251112#0 -181441046#2 -181441046#1 -181441046#0 -181441038#0 28363693#0 28363693#1 28363693#2 -28363704#0 -28363709#4 -28363709#3 -28363709#2 -28363709#1 -28363709#0 197582533#0 197582533#1 230518904#0 230518904#1"/>
    </vehicle>
    <vehicle id="49" depart="4.90">
        <route edges="28236405#0 28236405#1 -28236347#1 -28236347#0 -28236403#2 -28236403#1 -28236403#0 -28236414#6 -28236414#5 -28236414#4 -28236414#3 -28236414#2 -28236414#1 -28236414#0 -28236401 -215626705#1 -215626705#0 -28236442 28322690 -28322694 -111528568#4 -111528568#3 -111528568#2 -111528568#1 -111528568#0 111528565#3 -28371258 -28371264 -111528573#1 -111528573#0 111528563#0 111528563#1 111528567 111528564#0 111528564#1 111528564#2 111528564#3 111528564#4 111528564#5 230518901#0 230518901#1 230518901#2 230518901#3 230518901#4 230518901#5 230518901#6 230518901#7 230518901#8 230518901#9 230518901#10 230518901#11 230518894#0 230518894#1 230518894#2 230518894#3 230518904#0 230518904#1"/>
    </vehicle>
    <vehicle id="50" depart="5.00">
        <route edges="28363703 -28363708#2 -28363708#1 -28363708#0 28363704#0 28363704#1 28363704#2 28363704#3 28363704#4 28363704#5 28363704#6 52050335#0 52050335#1 28322720#0 28322720#1 28322720#2 28322720#3 28322720#4 28322720#5 28322720#6 28322720#7 28322720#8 28322720#9 174300540#0 -28322722 -28322660#1 -28322660#0 28322669 28785890#2 28322735 28322668 25205971 25205973#0 26263188 -26263184 -164497072#2 -164497072#1 -164497072#0 -29977360 164497071 -164497073#3 -164497073#2 -164497073#1 28322681#0 28322681#1 28322681#2 28322681#3 28322681#4 195221851#0 195221851#1 195221851#2 -28095058#3 -28095058#2 -28095058#1 -28095058#0 195227153#0 -331870026 -331869034"/>
    </vehicle>
    <vehicle id="51" depart="5.10">
        <route edges="-28371281#2 -28371281#1 -28371281#0 28785891 26262922 28785890#0 28322670 28322660#0 28322660#1 28322722 174300540#1 161161304 197639518#0 197639518#1 197639518#2 -28322729 -28322730 -28322723 -28322724 -28322726 28322703 28322727#2 28322727#3 28322727#4 28785886 28371280 28371279 130767156 35081091 111528571 111528563#4 111528563#0 111528563#1 111528567 111528564#0 111528564#1 111528564#2 111528564#3 111528564#4 111528564#5 230518901#0 230518901#1 230518901#2 230518901#3 230518901#4 230518901#5 230518901#6 230518901#7 230518901#8 230518901#9 230518901#10 230518901#11 230518894#0 230518894#1 230518894#2 230518894#3 230518904#0 230518904#1"/>
    </vehicle>
    <vehicle id="52" depart="5.20">
        <route edges="-28322740 -181447040#8 -181447040#7 -181447040#6 -181447040#5 -181447040#4 -181447040#3 -181447040#2 -181447040#1 -181447040#0 -181447039 166871858#0 166871858#1 181447041#0 181447041#1 181447041#2 181447041#3 181447041#4 181447041#5 -28322675#1 -28322675#0 164497072#2 -26263187#1 -26263187#0 -26263186#2 26263189 43875920 130767164 25171879 25171878 28322728 28322727#0 28322727#1 28322727#2 28322727#3 28322727#4 28785886 28371280 28371279 130767156 35081091 111528571 111528563#4 111528563#0 111528563#1 111528567 111528564#0 111528564#1 111528564#2 111528564#3 111528564#4 111528564#5 230518901#0 230518901#1 230518901#2 230518901#3 230518901#4 230518901#5 230518901#6 230518901#7 230518901#8 230518901#9 230518901#10 230518901#11 230518894#0 230518894#1 230518894#2 230518894#3 230518904#0 230518904#1"/>
    </vehicle>
    <vehicle id="53" depart="5.30">
        <route edges="-93379797 230518891#1 230518890#0 230518890#1 -93380141#3 -93380141#2 -93380141#1 -93380141#0 -233870212#1"/>
    </vehicle>
    <vehicle id="54" depart="5.40">
        <route edges="-93501809 93497037#1 -195227153#1 -195227153#0 28095058#0 28095058#1 28095058#2 28095058#3 -195221851#2 -195221851#1 -195221851#0 -28322681#4 -28322681#3 -28322681#2 28322683#0 28322683#1 28322743#0 28322743#1 28322743#2 164497073#2 164497073#3 29977359#0 29977359#1 29977360 164497072#0 164497072#1 164497072#2 -26263187#1 -26263187#0 -26263186#2 26263189 43875920 130767164 25171879 25171878 28322728 28322727#0 28322702 28322726 -197639519#4 -197639519#3 -197639519#2 -197639519#1 -197639519#0 -28363704#6 -28363704#5 -28363704#4 -28363697#5 -28363697#4 -28363697#3 -28363697#2 -274217550#2 -28363684#1 184921617 199964373"/>
    </vehicle>
    <vehicle id="55" depart="5.50">
        <route edges="-28322699#1 -28322708#0 -28322700#1 -28322700#0 -80456654#1 -80456654#0 80456651#4 -28236429#1 -28236429#0 -28236416 -80581420#2 -80581420#1 -80581420#0 80581418#2 215626718 -28220660#2 -28220660#1 28236414#0 28244704#0 363237942#0 363237942#1"/>
    </vehicle>
    <vehicle id="56" depart="5.60">
        <route edges="28371258 111528565#0 111528565#1 111528565#2 111528568#0 111528568#1 111528568#2 111528568#3 111528568#4 28322694 215626704#0 215626704#1 28322691 215626705#0 215626705#1 28236401 28236414#0 28236414#1 28236414#2 28236414#3 28236414#4 28236414#5 28236414#6 28236403#0 28236403#1 28236403#2 -133638593 -26263191#1 -26263191#0 215626722#0 -230518908#1 -230518908#0 28322738#0 -28322708#2 28322698#1 28322698#2 -157937238#1"/>
    </vehicle>
    <vehicle id="57" depart="5.70">
        <route edges="195936145#0 195936145#1 221586631 -221586635#2 -221586623 -80456662#3 -80456662#2 -80456662#1 -80456662#0 80456651#3 80456651#4 -28236429#1 -28236429#0 -28236416 -80581420#2 -80581420#1 -80581420#0 80581418#2 215626718 -28220660#2 -28220660#1 28236414#0 28236414#1 28236414#2 28236414#3 28236414#4 315110066#0 315110066#1 28244709#4 28244703#1 -28244710#0 -28237017#2"/>
    </vehicle>
    <vehicle id="59" depart="5.90">
        <route edges="-233870212#1 230518896 233870213#1 233870213#2 233870212#2 233870212#3 233870212#4 230518889#0 230518889#1 230518889#2 230518889#3 26263186#0 26263186#1 26263186#2 26263187#0 26263187#1 -164497072#2 -164497072#1 -164497072#0 -29977360 164497071 -164497073#3 -164497073#2 -164497073#1 -164497073#0 -26263193 -199606128 -26263192 -28236351#6 -28236351#5 -28236351#4 -28236351#3 -28236351#2 -28236351#1 -28236351#0 -181447038 -181447037 -28236405#1 -28236405#0 -28236414#6 -28236414#5 -28236414#4 -28236414#3 -28236414#2 -28236414#1 -28236414#0 28220660#1 28220660#2"/>
    </vehicle>
    <vehicle id="60" depart="6.00">
        <route edges="29976825#1 29976825#2 163005665#0 163005665#1 163005689#0 163005689#1 -28322717 -28322713#2 -28322713#1 -28322713#0 -28322706 -29976823#1 -29976823#0 -29976826#1 -29976826#0 29976824#0 29976824#1 26263191#0 26263191#1 133638593 28236347#0 28236347#1 181447037 181447038 28236351#0 28236351#1 28236351#2 28236351#3 -28095060 164577622 28236371#0 28236371#1 28236371#2 28236371#3 28236371#4 -28230757#2"/>
    </vehicle>
    <vehicle id="61" depart="6.10">
        <route edges="197647797 9577751 233870212#0 233870212#1 233870212#2 233870212#3 233870212#4 230518889#0 230518889#1 230518889#2 230518889#3 26263186#0 26263186#1 26263186#2 26263187#0 26263187#1 -164497072#2 -164497072#1 -164497072#0 -29977360 164497071 -164497073#3 -164497073#2 -164497073#1 -164497073#0 -26263193 -199606128 -26263192 -28236351#6 -28236351#5 -28236351#4 -28236351#3 -28236351#2 -28236351#1 -28236351#0 -181447038 -181447037 -28236347#1 -28236347#0 -133638593 -26263191#1 -26263191#0 215626722#0 -230518908#1 -230518908#0 28322738#0 28322738#1 28322738#2 157937240 157937239 157937238#0 -195936136#1 -195936136#0 143469392#4 194945009#0 194945009#1 194945009#2 204570679#1 204570679#2 204570679#3 204570679#4 204570679#5 198046796 204570677#0"/>
    </vehicle>
    <vehicle id="62" depart="6.20">