<?xml version="1.0"?>
<!-- generated on 2016-07-04 20:43:37.879026 by $Id: randomTrips.py 17235 2014-11-03 10:53:02Z behrisch $
  options: -n pisek-all/pisek-all.net.xml -e 150 -p 0.1 -L -l -o pisek-all/pisek-all.trips.xml
-->
<trips>
    <trip id="0" depart="0.00" from="233870212#1" to="-28322736#2" />
    <trip id="1" depart="0.10" from="28322652#4" to="-28237041" />
    <trip id="2" depart="0.20" from="294005305#0" to="-195227153#0" />
    <trip id="3" depart="0.30" from="28220771" to="-28236367" />
    <trip id="4" depart="0.40" from="197647797" to="297579944#1" />
    <trip id="5" depart="0.50" from="28244714" to="30436970#2" />
    <trip id="6" depart="0.60" from="28363688#0" to="28236398#1" />
    <trip id="7" depart="0.70" from="-28363682#0" to="-13857329#1" />
    <trip id="8" depart="0.80" from="28363688#0" to="28363704#1" />
    <trip id="9" depart="0.90" from="28322659#3" to="25205980" />
    <trip id="10" depart="1.00" from="28322654#1" to="80456660#6" />
    <trip id="11" depart="1.10" from="-93379438#1" to="-80581420#0" />
    <trip id="12" depart="1.20" from="28236438" to="-80456654#1" />
    <trip id="13" depart="1.30" from="52050336" to="-28371269#1" />
    <trip id="14" depart="1.40" from="215626706#0" to="28322681#2" />
    <trip id="15" depart="1.50" from="220783294#1" to="194847470#1" />
    <trip id="16" depart="1.60" from="28363710" to="-28371281#1" />
    <trip id="17" depart="1.70" from="-28236364#2" to="230518904#1" />
    <trip id="18" depart="1.80" from="230518892" to="-215626706#0" />
    <trip id="19" depart="1.90" from="28322652#1" to="28237025" />
    <trip id="20" depart="2.00" from="233870214#1" to="-197647797" />
    <trip id="21" depart="2.10" from="-28200123#1" to="-194945009#3" />
    <trip id="22" depart="2.20" from="28095057#1" to="230518904#1" />
    <trip id="23" depart="2.30" from="-28322675#9" to="163005669#1" />
    <trip id="24" depart="2.40" from="195936145#1" to="28363699#1" />
    <trip id="25" depart="2.50" from="197582533#1" to="-143469392#2" />
    <trip id="26" depart="2.60" from="-220783294#1" to="26262926" />
    <trip id="27" depart="2.70" from="265482462#1" to="-28244700#1" />
    <trip id="28" depart="2.80" from="-199606128" to="28236351#0" />
    <trip id="29" depart="2.90" from="-28095057#1" to="181441038#0" />
    <trip id="30" depart="3.00" from="28236414#5" to="230518904#1" />
    <trip id="31" depart="3.10" from="-163005684#1" to="215626704#2" />
    <trip id="32" depart="3.20" from="-28244700#5" to="-28371258" />
    <trip id="33" depart="3.30" from="28322736#0" to="-230518895#1" />
    <trip id="34" depart="3.40" from="-26263191#1" to="28236351#2" />
    <trip id="35" depart="3.50" from="-29097952#1" to="28322659#4" />
    <trip id="36" depart="3.60" from="230518891#2" to="-195221851#2" />
    <trip id="37" depart="3.70" from="163005674" to="28236414#5" />
    <trip id="38" depart="3.80" from="28095062#0" to="163005665#0" />
    <trip id="39" depart="3.90" from="-263818086#1" to="232908023" />
    <trip id="40" depart="4.00" from="197647797" to="28322728" />
    <trip id="41" depart="4.10" from="28322641#0" to="25205973#2" />
    <trip id="42" depart="4.20" from="-294005305#1" to="28363681" />
    <trip id="43" depart="4.30" from="111528568#1" to="230518889#1" />
    <trip id="44" depart="4.40" from="-197582533#0" to="28363682#0" />
    <trip id="45" depart="4.50" from="-337950379" to="315110066#1" />
    <trip id="46" depart="4.60" from="28323399" to="-363348557#0" />
    <trip id="47" depart="4.70" from="-80456654#1" to="337950379" />
    <trip id="48" depart="4.80" from="-182251108#0" to="230518904#1" />
    <trip id="49" depart="4.90" from="28236405#0" to="230518904#1" />
    <trip id="50" depart="5.00" from="28363703" to="-331869034" />
    <trip id="51" depart="5.10" from="-28371281#2" to="230518904#1" />
    <trip id="52" depart="5.20" from="-28322740" to="230518904#1" />
    <trip id="53" depart="5.30" from="-93379797" to="-233870212#1" />
    <trip id="54" depart="5.40" from="-93501809" to="199964373" />
    <trip id="55" depart="5.50" from="-28322699#1" to="363237942#1" />
    <trip id="56" depart="5.60" from="28371258" to="-157937238#1" />
    <trip id="57" depart="5.70" from="195936145#0" to="-28237017#2" />
    <trip id="58" depart="5.80" from="28323738#0" to="-297579971" />
    <trip id="59" depart="5.90" from="-233870212#1" to="28220660#2" />
    <trip id="60" depart="6.00" from="29976825#1" to="-28230757#2" />
    <trip id="61" depart="6.10" from="197647797" to="204570677#0" />
    <trip id="62" depart="6.20" from="195936141#0" to="-230518901#7" />
    <trip id="63" depart="6.30" from="-28236371#3" to="25205995" />
    <trip id="64" depart="6.40" from="-164497073#1" to="-29097952#0" />
    <trip id="65" depart="6.50" from="28245713" to="268995941#4" />
    <trip id="66" depart="6.60" from="-194945009#5" to="30436970#2" />
    <trip id="67" depart="6.70" from="230518890#2" to="181441038#0" />
    <trip id="68" depart="6.80" from="28363709#2" to="-13857329#1" />
    <trip id="69" depart="6.90" from="197647797" to="-28236414#5" />
    <trip id="70" depart="7.00" from="-230518904#1" to="29976825#3" />
    <trip id="71" depart="7.10" from="28095057#1" to="-28236371#3" />
    <trip id="72" depart="7.20" from="28244736" to="230518904#0" />
    <trip id="73" depart="7.30" from="-28322712#0" to="230518908#0" />
    <trip id="74" depart="7.40" from="197647797" to="26263190#0" />
    <trip id="75" depart="7.50" from="80581418#1" to="-230518894#1" />
    <trip id="76" depart="7.60" from="-28095057#1" to="174300546" />
    <trip id="77" depart="7.70" from="-28322707#2" to="230518908#0" />
    <trip id="78" depart="7.80" from="28220660#1" to="-164497072#1" />
    <trip id="79" depart="7.90" from="-230518908#0" to="28323737#0" />
    <trip id="80" depart="8.00" from="80456660#1" to="164497073#2" />
    <trip id="81" depart="8.10" from="-29976825#1" to="-314186118" />
    <trip id="82" depart="8.20" from="28322708#0" to="-28244735#2" />
    <trip id="83" depart="8.30" from="28230761#0" to="-274217550#0" />
    <trip id="84" depart="8.40" from="163005706#1" to="-28322699#1" />
    <trip id="85" depart="8.50" from="195936144" to="-80456654#1" />
    <trip id="86" depart="8.60" from="28363709#2" to="29097952#1" />
    <trip id="87" depart="8.70" from="182251111#0" to="-28236351#2" />
    <trip id="88" depart="8.80" from="-230518894#3" to="230518904#1" />
    <trip id="89" depart="8.90" from="28363703" to="28244736" />
    <trip id="90" depart="9.00" from="29977359#1" to="13857329#2" />
    <trip id="91" depart="9.10" from="28322669" to="163005706#2" />
    <trip id="92" depart="9.20" from="111528564#3" to="197582533#1" />
    <trip id="93" depart="9.30" from="28322741#4" to="28322709#2" />
    <trip id="94" depart="9.40" from="-230518890#2" to="-197647797" />
    <trip id="95" depart="9.50" from="314186022" to="-28322652#2" />
    <trip id="96" depart="9.60" from="268996033" to="28322686#0" />
    <trip id="97" depart="9.70" from="163005706#1" to="-197647797" />
    <trip id="98" depart="9.80" from="314186118" to="-28322696#0" />
    <trip id="99" depart="9.90" from="26262926" to="29976518" />
    <trip id="100" depart="10.00" from="-29097952#0" to="-93498782#0" />
    <trip id="101" depart="10.10" from="274217547#0" to="28244710#1" />
    <trip id="102" depart="10.20" from="221586631" to="-28322684#1" />
    <trip id="103" depart="10.30" from="274217550#1" to="29976825#4" />
    <trip id="104" depart="10.40" from="28785887#1" to="28371265" />
    <trip id="105" depart="10.50" from="-331440085#0" to="195936136#0" />
    <trip id="106" depart="10.60" from="28785887#1" to="28245713" />
    <trip id="107" depart="10.70" from="-230518904#1" to="-28237020" />
    <trip id="108" depart="10.80" from="28230757#1" to="233870212#4" />
    <trip id="109" depart="10.90" from="-230518904#1" to="182251111#0" />
    <trip id="110" depart="11.00" from="182251111#0" to="25205995" />
    <trip id="111" depart="11.10" from="-230518904#1" to="28230754" />
    <trip id="112" depart="11.20" from="35081091" to="28220647#1" />
    <trip id="113" depart="11.30" from="195936144" to="-31720579" />
    <trip id="114" depart="11.40" from="197647797" to="-28236351#5" />
    <trip id="115" depart="11.50" from="-28322694" to="28322708#0" />
    <trip id="116" depart="11.60" from="28322741#2" to="230518891#0" />
    <trip id="117" depart="11.70" from="28322681#4" to="-197639518#2" />
    <trip id="118" depart="11.80" from="-268996101#2" to="272527248" />
    <trip id="119" depart="11.90" from="163005665#0" to="-164497072#1" />
    <trip id="120" depart="12.00" from="164497068" to="-26263187#0" />
    <trip id="121" depart="12.10" from="-80581420#1" to="-28236351#0" />
    <trip id="122" depart="12.20" from="-79184786" to="-197647797" />
    <trip id="123" depart="12.30" from="272527248" to="-197647797" />
    <trip id="124" depart="12.40" from="-28236351#0" to="-197582533#1" />
    <trip id="125" depart="12.50" from="93498782#0" to="28220660#2" />
    <trip id="126" depart="12.60" from="-28236403#1" to="-28322679#0" />
    <trip id="127" depart="12.70" from="-28230754" to="-28363688#1" />
    <trip id="128" depart="12.80" from="28785890#0" to="230518894#1" />
    <trip id="129" depart="12.90" from="-297579971" to="-195227153#1" />
    <trip id="130" depart="13.00" from="-28322652#0" to="28230761#0" />
    <trip id="131" depart="13.10" from="-246775001" to="233870212#1" />
    <trip id="132" depart="13.20" from="-79184786" to="-303431349#0" />
    <trip id="133" depart="13.30" from="197639518#0" to="28322741#4" />
    <trip id="134" depart="13.40" from="163005706#2" to="274217547#1" />
    <trip id="135" depart="13.50" from="-80456660#5" to="130767167" />
    <trip id="136" depart="13.60" from="-28322724" to="-197647797" />
    <trip id="137" depart="13.70" from="28363697#2" to="28363709#2" />
    <trip id="138" depart="13.80" from="268996053" to="-181441038#0" />
    <trip id="139" depart="13.90" from="-28322712#0" to="28322708#1" />
    <trip id="140" depart="14.00" from="-238431554" to="28785887#1" />
    <trip id="141" depart="14.10" from="-230518904#1" to="-28236397#0" />
    <trip id="142" depart="14.20" from="-230518904#1" to="221586634" />
    <trip id="143" depart="14.30" from="28371269#0" to="-181447042#1" />
    <trip id="144" depart="14.40" from="-230518904#0" to="28363696" />
    <trip id="145" depart="14.50" from="-230518894#2" to="130767163" />
    <trip id="146" depart="14.60" from="331440085#0" to="28363682#0" />
    <trip id="147" depart="14.70" from="-79184786" to="230518904#1" />
    <trip id="148" depart="14.80" from="28363704#0" to="163005665#0" />
    <trip id="149" depart="14.90" from="-26263186#0" to="-93498782#0" />
    <trip id="150" depart="15.00" from="-28371269#1" to="181447041#1" />
    <trip id="151" depart="15.10" from="233870212#0" to="25205973#2" />
    <trip id="152" depart="15.20" from="181441038#1" to="182251112#4" />
    <trip id="153" depart="15.30" from="25205973#0" to="-215626706#1" />
    <trip id="154" depart="15.40" from="-28236398#1" to="230518901#4" />
    <trip id="155" depart="15.50" from="197647797" to="195221851#1" />
    <trip id="156" depart="15.60" from="163005689#1" to="-230518890#2" />
    <trip id="157" depart="15.70" from="230518904#0" to="25205973#2" />
    <trip id="158" depart="15.80" from="194945009#1" to="-194847470#4" />
    <trip id="159" depart="15.90" from="230518894#1" to="28322727#0" />
    <trip id="160" depart="16.00" from="163005706#2" to="-28322681#3" />
    <trip id="161" depart="16.10" from="-13857329#1" to="28220659#0" />
    <trip id="162" depart="16.20" from="268996036#3" to="-29976825#1" />
    <trip id="163" depart="16.30" from="-29976825#2" to="163005684#1" />
    <trip id="164" depart="16.40" from="315110066#0" to="25205995" />
    <trip id="165" depart="16.50" from="163005706#1" to="331440085#0" />
    <trip id="166" depart="16.60" from="163005669#0" to="230518904#0" />
    <trip id="167" depart="16.70" from="-230518904#1" to="80456660#6" />
    <trip id="168" depart="16.80" from="93381574#1" to="28237020" />
    <trip id="169" depart="16.90" from="28244731#0" to="181441038#0" />
    <trip id="170" depart="17.00" from="93379369" to="294005305#1" />
    <trip id="171" depart="17.10" from="28363700" to="-28322697#1" />
    <trip id="172" depart="17.20" from="-230518903" to="-233870212#0" />
    <trip id="173" depart="17.30" from="93381574#1" to="-28322682#0" />
    <trip id="174" depart="17.40" from="-246775001" to="274217550#1" />
    <trip id="175" depart="17.50" from="331869034" to="-28244709#3" />
    <trip id="176" depart="17.60" from="26262933" to="25205987#1" />
    <trip id="177" depart="17.70" from="28322709#2" to="-181447041#1" />
    <trip id="178" depart="17.80" from="-230518904#1" to="93379438#1" />
    <trip id="179" depart="17.90" from="25144681#0" to="28322675#9" />
    <trip id="180" depart="18.00" from="28322676#2" to="28322675#0" />
    <trip id="181" depart="18.10" from="28244722" to="-220783294#1" />
    <trip id="182" depart="18.20" from="28323409#0" to="230518892" />
    <trip id="183" depart="18.30" from="28322681#3" to="-13857329#1" />
    <trip id="184" depart="18.40" from="268995968" to="28322668" />
    <trip id="185" depart="18.50" from="29976825#1" to="221586635#1" />
    <trip id="186" depart="18.60" from="-297579923#0" to="-230518904#0" />
    <trip id="187" depart="18.70" from="-28363703" to="-220783294#0" />
    <trip id="188" depart="18.80" from="111528563#2" to="-230518891#2" />
    <trip id="189" depart="18.90" from="28363695#2" to="28785887#1" />
    <trip id="190" depart="19.00" from="111528565#1" to="331440085#0" />
    <trip id="191" depart="19.10" from="-13857329#0" to="28371276" />
    <trip id="192" depart="19.20" from="28236351#0" to="80581420#1" />
    <trip id="193" depart="19.30" from="28785887#1" to="-143469392#4" />
    <trip id="194" depart="19.40" from="-111528564#3" to="-28363703" />
    <trip id="195" depart="19.50" from="163005667#1" to="28785887#1" />
    <trip id="196" depart="19.60" from="-28322687#5" to="230518904#1" />
    <trip id="197" depart="19.70" from="-28363683" to="-197647797" />
    <trip id="198" depart="19.80" from="-28095058#3" to="181447037" />
    <trip id="199" depart="19.90" from="220783294#1" to="195227153#1" />
    <trip id="200" depart="20.00" from="-166871859#0" to="230518899" />
    <trip id="201" depart="20.10" from="26263190#2" to="221586624#1" />
    <trip id="202" depart="20.20" from="28322659#0" to="-28236403#1" />
    <trip id="203" depart="20.30" from="-230518903" to="28322675#0" />
    <trip id="204" depart="20.40" from="26262924#0" to="80456654#1" />
    <trip id="205" depart="20.50" from="-331440085#0" to="28785887#1" />
    <trip id="206" depart="20.60" from="28245715#0" to="26262924#0" />
    <trip id="207" depart="20.70" from="28322652#4" to="-28322698#2" />
    <trip id="208" depart="20.80" from="197647797" to="29976825#1" />
    <trip id="209" depart="20.90" from="-28236353#0" to="-197582533#1" />
    <trip id="210" depart="21.00" from="182251108#0" to="28322681#1" />
    <trip id="211" depart="21.10" from="28363695#0" to="221586622" />
    <trip id="212" depart="21.20" from="-231634767" to="28244728" />
    <trip id="213" depart="21.30" from="197647797" to="-230518894#1" />
    <trip id="214" depart="21.40" from="28322654#1" to="-28095052" />
    <trip id="215" depart="21.50" from="182251111#0" to="274217547#1" />
    <trip id="216" depart="21.60" from="28363709#1" to="-268996053" />
    <trip id="217" depart="21.70" from="-232908023" to="174300546" />
    <trip id="218" depart="21.80" from="197647797" to="-197584618" />
    <trip id="219" depart="21.90" from="130767163" to="-221586631" />
    <trip id="220" depart="22.00" from="-268996036#1" to="-28323737#0" />
    <trip id="221" depart="22.10" from="233497830" to="-197647797" />
    <trip id="222" depart="22.20" from="-230518904#1" to="-28236351#5" />
    <trip id="223" depart="22.30" from="28363709#1" to="-28095050#1" />
    <trip id="224" depart="22.40" from="181447042#2" to="-194847470#3" />
    <trip id="225" depart="22.50" from="28322730" to="-150780038" />
    <trip id="226" depart="22.60" from="-28236347#0" to="-93498782#0" />
    <trip id="227" depart="22.70" from="230518895#1" to="29876982" />
    <trip id="228" depart="22.80" from="-157937242#0" to="28322727#3" />
    <trip id="229" depart="22.90" from="28322668" to="272527248" />
    <trip id="230" depart="23.00" from="150508128#1" to="28230762" />
    <trip id="231" depart="23.10" from="-230518908#0" to="28322696#1" />
    <trip id="232" depart="23.20" from="-315110069#1" to="-220783294#1" />
    <trip id="233" depart="23.30" from="-28244732" to="163005706#2" />
    <trip id="234" depart="23.40" from="215626706#0" to="28322736#0" />
    <trip id="235" depart="23.50" from="133638593" to="28363710" />
    <trip id="236" depart="23.60" from="314186022" to="26262926" />
    <trip id="237" depart="23.70" from="-28363702#1" to="181441038#0" />
    <trip id="238" depart="23.80" from="-28363709#2" to="28236353#5" />
    <trip id="239" depart="23.90" from="268995937" to="28322727#3" />
    <trip id="240" depart="24.00" from="-163005667#2" to="28322728" />
    <trip id="241" depart="24.10" from="-28363704#2" to="164497073#2" />
    <trip id="242" depart="24.20" from="-28322681#3" to="-197647797" />
    <trip id="243" depart="24.30" from="194945009#5" to="-28095057#1" />
    <trip id="244" depart="24.40" from="233870214#1" to="230518898#0" />
    <trip id="245" depart="24.50" from="28236414#3" to="-28322696#1" />
    <trip id="246" depart="24.60" from="-195936136#0" to="230518904#1" />
    <trip id="247" depart="24.70" from="-28323737#1" to="-233870212#1" />
    <trip id="248" depart="24.80" from="133638593" to="-25144681#0" />
    <trip id="249" depart="24.90" from="-111528564#3" to="-28363695#0" />
    <trip id="250" depart="25.00" from="-28322730" to="133638593" />
    <trip id="251" depart="25.10" from="-80581420#1" to="-197647797" />
    <trip id="252" depart="25.20" from="-28236398#1" to="-315110066#0" />
    <trip id="253" depart="25.30" from="197647797" to="13857329#2" />
    <trip id="254" depart="25.40" from="197647797" to="363348557#0" />
    <trip id="255" depart="25.50" from="363240288#1" to="315110066#0" />
    <trip id="256" depart="25.60" from="-220783294#1" to="28363707" />
    <trip id="257" depart="25.70" from="363290815" to="28245713" />
    <trip id="258" depart="25.80" from="163005706#1" to="230518894#1" />
    <trip id="259" depart="25.90" from="29976825#3" to="195936145#1" />
    <trip id="260" depart="26.00" from="28322738#0" to="-28363684#0" />
    <trip id="261" depart="26.10" from="303431349#2" to="163005669#2" />
    <trip id="262" depart="26.20" from="-28322724" to="25205995" />
    <trip id="263" depart="26.30" from="26262924#0" to="331440085#0" />
    <trip id="264" depart="26.40" from="-28322736#5" to="-28220660#1" />
    <trip id="265" depart="26.50" from="-28322687#5" to="230518904#1" />
    <trip id="266" depart="26.60" from="80456651#4" to="-28371281#1" />
    <trip id="267" depart="26.70" from="28322652#4" to="-133638593" />
    <trip id="268" depart="26.80" from="181447042#2" to="28236401" />
    <trip id="269" depart="26.90" from="194945009#3" to="28322727#0" />
    <trip id="270" depart="27.00" from="28244719#1" to="-28322654#1" />
    <trip id="271" depart="27.10" from="28371268#0" to="28244710#2" />
    <trip id="272" depart="27.20" from="-28322685" to="-28363710" />
    <trip id="273" depart="27.30" from="-153791762" to="-197582533#1" />
    <trip id="274" depart="27.40" from="-29097952#0" to="28363684#2" />
    <trip id="275" depart="27.50" from="-230518904#1" to="181441038#0" />
    <trip id="276" depart="27.60" from="-268995968" to="-199964377#0" />
    <trip id="277" depart="27.70" from="197647797" to="80456660#1" />
    <trip id="278" depart="27.80" from="93380141#3" to="215626704#2" />
    <trip id="279" depart="27.90" from="28236364#2" to="26263186#0" />
    <trip id="280" depart="28.00" from="-163005689#0" to="28363704#0" />
    <trip id="281" depart="28.10" from="-29976822#0" to="28322712#1" />
    <trip id="282" depart="28.20" from="-28200123#0" to="-268996053" />
    <trip id="283" depart="28.30" from="-28322736#5" to="-93498782#0" />
    <trip id="284" depart="28.40" from="197647797" to="28237017#1" />
    <trip id="285" depart="28.50" from="28322679#1" to="111528572" />
    <trip id="286" depart="28.60" from="28236371#2" to="-31720565#0" />
    <trip id="287" depart="28.70" from="232908023" to="297579939" />
    <trip id="288" depart="28.80" from="-233870212#3" to="268996005" />
    <trip id="289" depart="28.90" from="28322684#1" to="28244732" />
    <trip id="290" depart="29.00" from="28322708#2" to="-28363682#0" />
    <trip id="291" depart="29.10" from="-220783294#1" to="220783294#1" />
    <trip id="292" depart="29.20" from="29976825#1" to="197639518#1" />
    <trip id="293" depart="29.30" from="28244702#0" to="-28322736#2" />
    <trip id="294" depart="29.40" from="-363240247#0" to="25205995" />
    <trip id="295" depart="29.50" from="28322741#4" to="-28363684#0" />
    <trip id="296" depart="29.60" from="230518895#1" to="315110066#0" />
    <trip id="297" depart="29.70" from="233870212#4" to="230518904#1" />
    <trip id="298" depart="29.80" from="197647797" to="-197647797" />
    <trip id="299" depart="29.90" from="30473128#1" to="-80581420#1" />
    <trip id="300" depart="30.00" from="314186022" to="-268996021" />
    <trip id="301" depart="30.10" from="-153791762" to="28322727#1" />
    <trip id="302" depart="30.20" from="-80456654#1" to="28322676#3" />
    <trip id="303" depart="30.30" from="-194945012#1" to="233870212#0" />
    <trip id="304" depart="30.40" from="-199964377#0" to="30436970#1" />
    <trip id="305" depart="30.50" from="181447042#2" to="28363708#2" />
    <trip id="306" depart="30.60" from="28363688#5" to="215626704#0" />
    <trip id="307" depart="30.70" from="-246774999#0" to="28322691" />
    <trip id="308" depart="30.80" from="-29976825#1" to="-80581420#0" />
    <trip id="309" depart="30.90" from="-30436970#2" to="199964377#0" />
    <trip id="310" depart="31.00" from="-28363697#5" to="-197647797" />
    <trip id="311" depart="31.10" from="-28230761#0" to="204570679#3" />
    <trip id="312" depart="31.20" from="-133638593" to="186521907#0" />
    <trip id="313" depart="31.30" from="-230518895#1" to="28244715" />
    <trip id="314" depart="31.40" from="182251112#0" to="28363682#0" />
    <trip id="315" depart="31.50" from="13857329#1" to="82913631" />
    <trip id="316" depart="31.60" from="314186022" to="232908023" />
    <trip id="317" depart="31.70" from="-28322713#0" to="-111528564#3" />
    <trip id="318" depart="31.80" from="-166332734" to="-28371281#0" />
    <trip id="319" depart="31.90" from="195936141#0" to="163005669#1" />
    <trip id="320" depart="32.00" from="-80456660#5" to="-197647797" />
    <trip id="321" depart="32.10" from="-31720565#0" to="-230518891#0" />
    <trip id="322" depart="32.20" from="314186022" to="268996101#0" />
    <trip id="323" depart="32.30" from="197647797" to="-28363697#4" />
    <trip id="324" depart="32.40" from="-143469392#1" to="-30436970#1" />
    <trip id="325" depart="32.50" from="-163005684#1" to="-28237040" />
    <trip id="326" depart="32.60" from="-25144681#4" to="-93498782#0" />
    <trip id="327" depart="32.70" from="181441038#0" to="26262926" />
    <trip id="328" depart="32.80" from="28363708#0" to="230518903" />
    <trip id="329" depart="32.90" from="182694174#0" to="28244735#1" />
    <trip id="330" depart="33.00" from="28323737#0" to="130767163" />
    <trip id="331" depart="33.10" from="-30436970#2" to="246774999#0" />
    <trip id="332" depart="33.20" from="-26858741" to="-28323396" />
    <trip id="333" depart="33.30" from="-28363697#3" to="28244702#1" />
    <trip id="334" depart="33.40" from="28245715#1" to="28363704#1" />
    <trip id="335" depart="33.50" from="-233870212#0" to="-28237041" />
    <trip id="336" depart="33.60" from="-28237017#2" to="28363708#0" />
    <trip id="337" depart="33.70" from="26262926" to="-28220772" />
    <trip id="338" depart="33.80" from="28322672" to="-197582533#0" />
    <trip id="339" depart="33.90" from="314186022" to="28785890#0" />
    <trip id="340" depart="34.00" from="-28244734" to="232908023" />
    <trip id="341" depart="34.10" from="93497037#0" to="230518904#1" />
    <trip id="342" depart="34.20" from="231634768" to="93501809" />
    <trip id="343" depart="34.30" from="337950380" to="-194945009#1" />
    <trip id="344" depart="34.40" from="28323737#0" to="25205995" />
    <trip id="345" depart="34.50" from="-28363684#1" to="29977359#0" />
    <trip id="346" depart="34.60" from="-272527248" to="221586622" />
    <trip id="347" depart="34.70" from="80581420#2" to="230518904#1" />
    <trip id="348" depart="34.80" from="197647797" to="-150780038" />
    <trip id="349" depart="34.90" from="28245713" to="80456654#1" />
    <trip id="350" depart="35.00" from="-233870212#4" to="331440085#0" />
    <trip id="351" depart="35.10" from="28236398#1" to="28785891" />
    <trip id="352" depart="35.20" from="-28244710#0" to="28363695#0" />
    <trip id="353" depart="35.30" from="80456654#1" to="194945009#5" />
    <trip id="354" depart="35.40" from="25205973#2" to="-28322736#0" />
    <trip id="355" depart="35.50" from="363237942#1" to="28237019" />
    <trip id="356" depart="35.60" from="197647797" to="26262924#0" />
    <trip id="357" depart="35.70" from="150508128#0" to="-331869034" />
    <trip id="358" depart="35.80" from="-111528564#2" to="28245713" />
    <trip id="359" depart="35.90" from="28095058#1" to="29976822#2" />
    <trip id="360" depart="36.00" from="-163005706#2" to="25205971" />
    <trip id="361" depart="36.10" from="-28371268#2" to="13857329#2" />
    <trip id="362" depart="36.20" from="-274217550#0" to="28236388" />
    <trip id="363" depart="36.30" from="130767163" to="-197647797" />
    <trip id="364" depart="36.40" from="-28322654#1" to="-230518901#11" />
    <trip id="365" depart="36.50" from="-331440085#0" to="28322659#2" />
    <trip id="366" depart="36.60" from="-28363697#3" to="25171878" />
    <trip id="367" depart="36.70" from="28095052" to="-197647797" />
    <trip id="368" depart="36.80" from="181441038#0" to="28371258" />
    <trip id="369" depart="36.90" from="197647797" to="-194945012#0" />
    <trip id="370" depart="37.00" from="28245713" to="28245713" />
    <trip id="371" depart="37.10" from="197647797" to="80456660#6" />
    <trip id="372" depart="37.20" from="-25144681#0" to="-268996036#3" />
    <trip id="373" depart="37.30" from="28236443#0" to="-230518889#2" />
    <trip id="374" depart="37.40" from="-193548910" to="-164497051" />
    <trip id="375" depart="37.50" from="28236397#1" to="-268996092" />
    <trip id="376" depart="37.60" from="28322659#3" to="-29977360" />
    <trip id="377" depart="37.70" from="-230518904#1" to="297579929" />
    <trip id="378" depart="37.80" from="-182251112#0" to="272527248" />
    <trip id="379" depart="37.90" from="230518904#0" to="-28236405#0" />
    <trip id="380" depart="38.00" from="-28323394" to="26262926" />
    <trip id="381" depart="38.10" from="197647797" to="28244709#3" />
    <trip id="382" depart="38.20" from="111528568#8" to="-197647797" />
    <trip id="383" depart="38.30" from="-80456654#1" to="197582533#0" />
    <trip id="384" depart="38.40" from="28371276" to="-230518904#0" />
    <trip id="385" depart="38.50" from="-230518904#1" to="28236351#3" />
    <trip id="386" depart="38.60" from="28322681#2" to="-13857329#1" />
    <trip id="387" depart="38.70" from="-230518904#1" to="-28363695#0" />
    <trip id="388" depart="38.80" from="-28371268#2" to="-28363684#0" />
    <trip id="389" depart="38.90" from="28322712#0" to="93381574#1" />
    <trip id="390" depart="39.00" from="274217547#0" to="28363709#2" />
    <trip id="391" depart="39.10" from="-28236398#1" to="-28323396" />
    <trip id="392" depart="39.20" from="28322696#1" to="-28236397#0" />
    <trip id="393" depart="39.30" from="28323410#1" to="28371265" />
    <trip id="394" depart="39.40" from="-230518904#0" to="-215626703" />
    <trip id="395" depart="39.50" from="-272527248" to="181441046#2" />
    <trip id="396" depart="39.60" from="-28322696#3" to="195936145#2" />
    <trip id="397" depart="39.70" from="29097952#0" to="-28322687#7" />
    <trip id="398" depart="39.80" from="28236371#5" to="-197647797" />
    <trip id="399" depart="39.90" from="-80456654#1" to="28363697#2" />
    <trip id="400" depart="40.00" from="143469392#1" to="28363693#2" />
    <trip id="401" depart="40.10" from="30436970#1" to="28245713" />
    <trip id="402" depart="40.20" from="-230518904#1" to="-13857329#1" />
    <trip id="403" depart="40.30" from="-230518904#1" to="111528564#1" />
    <trip id="404" depart="40.40" from="-80456660#6" to="230518904#1" />
    <trip id="405" depart="40.50" from="-195936136#0" to="-28322712#0" />
    <trip id="406" depart="40.60" from="28363705#1" to="297579942#0" />
    <trip id="407" depart="40.70" from="28363703" to="182251107" />
    <trip id="408" depart="40.80" from="28322697#0" to="-181441046#1" />
    <trip id="409" depart="40.90" from="93497037#0" to="-337950380" />
    <trip id="410" depart="41.00" from="93380141#0" to="25205995" />
    <trip id="411" depart="41.10" from="-28236414#5" to="25205995" />
    <trip id="412" depart="41.20" from="-111528564#3" to="13857329#1" />
    <trip id="413" depart="41.30" from="-28363709#0" to="13857329#2" />
    <trip id="414" depart="41.40" from="-194945009#1" to="130767164" />
    <trip id="415" depart="41.50" from="28244717" to="28371258" />
    <trip id="416" depart="41.60" from="197647797" to="-197647797" />
    <trip id="417" depart="41.70" from="-230518889#1" to="-28244700#5" />