<?xml version="1.0" encoding="UTF-8"?>

<!-- generated on Wed Sep 23 16:25:45 2015 by SUMO netconvert Version 0.17.1
<?xml version="1.0" encoding="UTF-8"?>

<configuration xmlns:xsi="http://www.w3.org/2001/XMLSchema-instance" xsi:noNamespaceSchemaLocation="http://sumo.sf.net/xsd/netconvertConfiguration.xsd">

    <input>
        <osm-files value="/home/martin/projects/highway/src/main/resources/nets/pisek-all/pisek.osm"/>
    </input>

    <output>
        <output-file value="/home/martin/projects/highway/src/main/resources/nets/pisek-all/pisek-all.net.xml"/>
    </output>

    <projection>
        <proj.utm value="true"/>
    </projection>

    <tls_building>
        <tls.join value="true"/>
    </tls_building>

    <edge_removal>
        <remove-edges.by-vclass value="hov,taxi,bus,delivery,transport,lightrail,cityrail,rail_slow,rail_fast,motorcycle,bicycle,pedestrian"/>
    </edge_removal>

    <processing>
        <no-internal-links value="true"/>
        <no-turnarounds value="true"/>
    </processing>

</configuration>
-->

<net version="0.13" xmlns:xsi="http://www.w3.org/2001/XMLSchema-instance" xsi:noNamespaceSchemaLocation="http://sumo.sf.net/xsd/net_file.xsd">

    <location netOffset="-430883.24,-5457476.38" convBoundary="0.00,0.00,9645.01,7460.98" origBoundary="14.049399,49.266640,14.203632,49.343286" projParameter="+proj=utm +zone=33 +ellps=WGS84 +datum=WGS84 +units=m +no_defs"/>

    <edge id="-111528564#0" from="3202316495" to="1270404919" priority="7" type="highway.secondary">
        <lane id="-111528564#0_0" index="0" speed="27.78" length="3.35" shape="6871.55,3386.25 6871.89,3389.59"/>
        <lane id="-111528564#0_1" index="1" speed="27.78" length="3.35" shape="6868.27,3386.59 6868.61,3389.91"/>
    </edge>
    <edge id="-111528564#1" from="74233381" to="3202316495" priority="7" type="highway.secondary" shape="6864.12,3365.77 6866.37,3384.23 6866.63,3386.76">
        <lane id="-111528564#1_0" index="0" speed="27.78" length="20.86" shape="6869.08,3365.51 6871.28,3383.64 6871.55,3386.25"/>
        <lane id="-111528564#1_1" index="1" speed="27.78" length="20.86" shape="6865.80,3365.91 6868.01,3384.03 6868.27,3386.59"/>
    </edge>
    <edge id="-111528564#2" from="1910267715" to="74233381" priority="7" type="highway.secondary" shape="6872.02,3324.46 6864.97,3338.16 6863.95,3354.34 6864.12,3365.77">
        <lane id="-111528564#2_0" index="0" speed="27.78" length="40.86" shape="6876.29,3326.98 6869.84,3339.51 6868.89,3354.65 6869.07,3365.34"/>
        <lane id="-111528564#2_1" index="1" speed="27.78" length="40.86" shape="6873.43,3325.33 6866.59,3338.61 6865.60,3354.45 6865.77,3365.39"/>
    </edge>
    <edge id="-111528564#3" from="2975737258" to="1910267715" priority="7" type="highway.secondary" shape="7044.40,3047.65 7044.36,3051.25 7043.10,3056.80 7039.80,3064.32 6930.53,3205.99 6920.71,3224.22 6913.10,3241.91 6903.53,3265.73 6894.91,3284.61 6872.02,3324.46">
        <lane id="-111528564#3_0" index="0" speed="27.78" length="329.07" shape="7049.34,3048.89 7049.31,3051.83 7047.82,3058.36 7044.09,3066.87 6934.45,3209.02 6925.07,3226.56 6917.65,3243.87 6908.12,3267.57 6899.41,3286.67 6876.45,3326.69"/>
        <lane id="-111528564#3_1" index="1" speed="27.78" length="329.07" shape="7046.04,3048.85 7046.01,3051.44 7044.68,3057.32 7041.23,3065.17 6931.83,3207.00 6922.17,3225.00 6914.62,3242.56 6905.06,3266.34 6896.41,3285.30 6873.51,3325.17"/>
    </edge>
    <edge id="-111528564#4" from="1910267609" to="2975737258" priority="7" type="highway.secondary">
        <lane id="-111528564#4_0" index="0" speed="27.78" length="7.13" shape="7046.22,3038.14 7048.65,3044.84"/>
        <lane id="-111528564#4_1" index="1" speed="27.78" length="7.13" shape="7043.12,3039.27 7045.55,3045.97"/>
    </edge>
    <edge id="-111528564#5" from="1910267605" to="1910267609" priority="7" type="highway.secondary">
        <lane id="-111528564#5_0" index="0" speed="27.78" length="3.96" shape="7044.05,3033.51 7045.77,3037.08"/>
        <lane id="-111528564#5_1" index="1" speed="27.78" length="3.96" shape="7041.08,3034.94 7042.80,3038.51"/>
    </edge>
    <edge id="-111528567" from="1270404919" to="1270404923" priority="7" type="highway.secondary">
        <lane id="-111528567_0" index="0" speed="27.78" length="1.00" shape="6871.90,3389.71 6871.96,3390.71"/>
        <lane id="-111528567_1" index="1" speed="27.78" length="1.00" shape="6868.61,3389.91 6868.67,3390.91"/>
    </edge>
    <edge id="-111528568#0" from="310132719" to="1270404909" priority="4" type="highway.residential" shape="7167.36,3721.61 7162.38,3691.48 7158.36,3667.79">
        <lane id="-111528568#0_0" index="0" speed="13.89" length="45.40" shape="7164.92,3716.97 7160.75,3691.75 7157.44,3672.20"/>
    </edge>
    <edge id="-111528568#1" from="310210411" to="310132719" priority="4" type="highway.residential" shape="7236.44,3920.84 7175.95,3740.65 7167.36,3721.61">
        <lane id="-111528568#1_0" index="0" speed="13.89" length="203.19" shape="7233.68,3917.79 7174.39,3741.17 7167.44,3725.78"/>
    </edge>
    <edge id="-111528568#2" from="310132767" to="310210411" priority="4" type="highway.residential">
        <lane id="-111528568#2_0" index="0" speed="13.89" length="6.51" shape="7236.98,3930.25 7235.47,3923.92"/>
    </edge>
    <edge id="-111528568#3" from="311729299" to="310132767" priority="4" type="highway.residential">
        <lane id="-111528568#3_0" index="0" speed="13.89" length="16.21" shape="7239.79,3955.97 7238.73,3939.80"/>
    </edge>
    <edge id="-111528568#4" from="311042224" to="311729299" priority="4" type="highway.residential">
        <lane id="-111528568#4_0" index="0" speed="13.89" length="2.31" shape="7240.19,3958.69 7239.84,3956.40"/>
    </edge>
    <edge id="-111528568#5" from="311729414" to="311042224" priority="4" type="highway.residential">
        <lane id="-111528568#5_0" index="0" speed="13.89" length="9.64" shape="7241.81,3977.31 7241.20,3967.69"/>
    </edge>
    <edge id="-111528568#6" from="310210408" to="311729414" priority="4" type="highway.residential">
        <lane id="-111528568#6_0" index="0" speed="13.89" length="23.22" shape="7244.16,4000.40 7241.81,3977.31"/>
    </edge>
    <edge id="-111528568#7" from="310132723" to="310210408" priority="4" type="highway.residential">
        <lane id="-111528568#7_0" index="0" speed="13.89" length="77.93" shape="7250.24,4088.34 7245.03,4010.59"/>
    </edge>
    <edge id="-111528568#8" from="310132725" to="310132723" priority="4" type="highway.residential" shape="7319.22,4314.15 7277.78,4209.05 7252.21,4093.05">
        <lane id="-111528568#8_0" index="0" speed="13.89" length="222.22" shape="7316.00,4310.47 7276.25,4209.65 7251.72,4098.47"/>
    </edge>
    <edge id="-111528568#9" from="301479597" to="310132725" priority="4" type="highway.residential">
        <lane id="-111528568#9_0" index="0" speed="13.89" length="10.94" shape="7324.09,4326.52 7318.85,4316.91"/>
    </edge>
    <edge id="-111528571" from="1270404921" to="940050591" priority="7" type="highway.secondary">
        <lane id="-111528571_0" index="0" speed="27.78" length="6.17" shape="6891.52,3414.94 6897.15,3417.47"/>
        <lane id="-111528571_1" index="1" speed="27.78" length="6.17" shape="6890.17,3417.95 6895.80,3420.48"/>
    </edge>
    <edge id="-111528572" from="287643352" to="1270404925" priority="6" type="highway.tertiary" shape="7224.02,3640.61 7171.99,3651.00 7163.99,3653.68">
        <lane id="-111528572_0" index="0" speed="22.22" length="57.76" shape="7224.87,3642.12 7172.31,3652.62 7168.37,3653.95"/>
    </edge>
    <edge id="-111528573#0" from="3202316498" to="1270404924" priority="7" type="highway.secondary">
        <lane id="-111528573#0_0" index="0" speed="27.78" length="0.20" shape="6857.17,3425.41 6857.28,3425.24"/>
        <lane id="-111528573#0_1" index="1" speed="27.78" length="0.20" shape="6859.95,3427.19 6860.06,3427.02"/>
    </edge>
    <edge id="-111528573#1" from="311603793" to="3202316498" priority="7" type="highway.secondary" shape="6853.76,3495.65 6848.80,3482.56 6847.35,3472.23 6847.22,3461.49 6850.15,3449.59 6854.47,3438.79 6860.53,3429.34">
        <lane id="-111528573#1_0" index="0" speed="27.78" length="72.51" shape="6848.82,3496.60 6843.98,3483.80 6842.44,3472.92 6842.27,3460.92 6845.34,3448.41 6850.05,3436.52 6856.36,3426.67"/>
        <lane id="-111528573#1_1" index="1" speed="27.78" length="72.51" shape="6851.91,3495.43 6847.19,3482.98 6845.71,3472.46 6845.57,3461.30 6848.55,3449.20 6853.00,3438.03 6859.14,3428.45"/>
    </edge>
    <edge id="-121533651" from="311603122" to="311603217" priority="6" type="highway.tertiary" shape="5030.01,2586.66 4872.57,2501.56 4855.17,2481.92 4835.48,2433.13">
        <lane id="-121533651_0" index="0" speed="22.22" length="258.97" shape="5029.22,2588.12 4871.52,2502.87 4853.75,2482.81 4833.95,2433.75"/>
    </edge>
    <edge id="-130767156" from="336222891" to="1439387348" priority="7" type="highway.secondary">
        <lane id="-130767156_0" index="0" speed="27.78" length="8.69" shape="6906.48,3423.91 6912.63,3430.05"/>
        <lane id="-130767156_1" index="1" speed="27.78" length="8.69" shape="6904.15,3426.25 6910.30,3432.38"/>
    </edge>
    <edge id="-133638593" from="287648057" to="287648058" priority="7" type="highway.secondary">
        <lane id="-133638593_0" index="0" speed="27.78" length="170.10" shape="7950.48,5021.13 8117.15,4987.16"/>
        <lane id="-133638593_1" index="1" speed="27.78" length="170.10" shape="7951.13,5024.36 8117.81,4990.40"/>
    </edge>
    <edge id="-13857329#0" from="287643386" to="129995662" priority="9" type="highway.primary" shape="8188.95,3171.99 8147.88,3185.56 8066.24,3209.95">
        <lane id="-13857329#0_0" index="0" speed="27.78" length="103.67" shape="8167.92,3180.67 8148.40,3187.12 8068.77,3210.91"/>
    </edge>
    <edge id="-13857329#1" from="74127281" to="287643386" priority="9" type="highway.primary" shape="8682.79,2844.25 8626.13,2903.25 8570.58,2955.73 8485.34,3020.73 8427.75,3057.44 8355.58,3098.42 8286.01,3132.88 8188.95,3171.99">
        <lane id="-13857329#1_0" index="0" speed="27.78" length="607.96" shape="8683.83,2845.55 8627.32,2904.39 8571.71,2956.93 8486.34,3022.04 8428.64,3058.84 8356.40,3099.86 8286.74,3134.36 8181.69,3176.70"/>
    </edge>
    <edge id="-13857329#2" from="441399154" to="74127281" priority="9" type="highway.primary" shape="8981.64,2129.47 8977.65,2139.72 8950.37,2215.07 8926.45,2291.40 8899.31,2395.81 8879.39,2468.06 8858.10,2538.02 8810.07,2647.29 8746.41,2758.06 8682.79,2844.25">
        <lane id="-13857329#2_0" index="0" speed="27.78" length="781.55" shape="8983.17,2130.07 8979.19,2140.32 8951.92,2215.63 8928.03,2291.90 8900.90,2396.23 8880.98,2468.49 8859.68,2538.50 8811.58,2647.95 8747.85,2758.88 8684.24,2845.06"/>
    </edge>
    <edge id="-143469392#0" from="2054533506" to="1569840811" priority="1" type="highway.track">
        <lane id="-143469392#0_0" index="0" speed="5.56" length="24.26" shape="8700.85,4613.78 8724.61,4618.70"/>
    </edge>
    <edge id="-143469392#1" from="2054533502" to="2054533506" priority="1" type="highway.track" shape="8632.45,4608.56 8647.15,4610.75 8695.78,4614.42">
        <lane id="-143469392#1_0" index="0" speed="5.56" length="59.02" shape="8632.90,4606.96 8647.40,4609.12 8691.63,4612.45"/>
    </edge>
    <edge id="-143469392#2" from="2082371318" to="2054533502" priority="1" type="highway.track">
        <lane id="-143469392#2_0" index="0" speed="5.56" length="27.38" shape="8606.36,4599.44 8632.70,4606.91"/>
    </edge>
    <edge id="-143469392#3" from="2063206452" to="2082371318" priority="1" type="highway.track">
        <lane id="-143469392#3_0" index="0" speed="5.56" length="13.96" shape="8592.93,4595.63 8606.36,4599.45"/>
    </edge>
    <edge id="-143469392#4" from="1701696422" to="2063206452" priority="1" type="highway.track" shape="8531.01,4551.21 8561.09,4580.06 8591.67,4596.99">
        <lane id="-143469392#4_0" index="0" speed="5.56" length="74.66" shape="8532.15,4550.02 8562.08,4578.72 8591.12,4594.80"/>
    </edge>
    <edge id="-150358632" from="1631392073" to="925205713" priority="5" type="highway.unclassified" shape="7446.92,5776.86 7434.28,5762.22 7433.36,5749.02 7441.02,5737.27 7452.58,5724.69 7451.78,5703.58">
        <lane id="-150358632_0" index="0" speed="13.89" length="82.53" shape="7445.67,5777.94 7432.68,5762.89 7431.67,5748.58 7439.63,5736.36 7450.90,5724.08 7450.26,5707.04"/>
    </edge>
    <edge id="-150358633" from="310070674" to="310132668" priority="5" type="highway.unclassified">
        <lane id="-150358633_0" index="0" speed="22.22" length="7.47" shape="7427.95,5597.23 7426.14,5589.98"/>
    </edge>
    <edge id="-150508128#0" from="1631371318" to="1634119606" priority="1" type="highway.track" shape="6984.48,5910.07 7003.93,5907.12 7030.77,5902.54 7050.22,5898.44 7059.58,5898.33 7079.94,5894.40">
        <lane id="-150508128#0_0" index="0" speed="5.56" length="96.82" shape="6984.23,5908.44 7003.68,5905.49 7030.50,5900.91 7050.04,5896.79 7059.41,5896.68 7079.63,5892.78"/>
    </edge>
    <edge id="-150508128#1" from="1631371354" to="1631371318" priority="1" type="highway.track" shape="6932.38,5906.55 6947.82,5911.56 6968.73,5912.22 6984.48,5910.07">
        <lane id="-150508128#1_0" index="0" speed="5.56" length="42.76" shape="6941.97,5907.93 6948.10,5909.92 6968.79,5910.58 6984.26,5908.43"/>
    </edge>
    <edge id="-150780038" from="294924381" to="1636583074" priority="1" type="highway.track" shape="8059.13,6023.43 8029.14,6013.88 8018.39,6006.17 8001.66,5990.03 7982.58,5981.69 7959.30,5974.16 7928.58,5976.53 7903.02,5983.57 7892.29,5987.28">
        <lane id="-150780038_0" index="0" speed="5.56" length="168.73" shape="8047.09,6021.32 8028.39,6015.37 8017.42,6007.51 8000.73,5991.43 7981.92,5983.21 7959.10,5975.83 7928.87,5978.16 7903.46,5985.16 7892.83,5988.84"/>
    </edge>
    <edge id="-150782458#0" from="354910214" to="310210109" priority="5" type="highway.unclassified">
        <lane id="-150782458#0_0" index="0" speed="13.89" length="15.55" shape="7081.35,4822.21 7096.29,4826.52"/>
    </edge>
    <edge id="-150782458#1" from="310132620" to="354910214" priority="5" type="highway.unclassified">
        <lane id="-150782458#1_0" index="0" speed="13.89" length="6.15" shape="7075.48,4819.97 7081.22,4822.17"/>
    </edge>
    <edge id="-151595428" from="311603042" to="2970143399" priority="1" type="highway.track" shape="6962.56,2553.34 6958.92,2529.98 6942.78,2481.29 6932.86,2445.67 6926.05,2380.53 6934.40,2348.54 6946.82,2301.35 6955.82,2273.39 6966.07,2266.00 6979.78,2267.29 7008.84,2281.61 7044.54,2296.79 7050.67,2298.60 7061.51,2299.70 7071.07,2296.28 7077.64,2290.64 7082.77,2281.53 7093.90,2246.24 7100.39,2217.96 7107.64,2179.93 7110.66,2153.60 7122.76,2049.35 7131.32,1987.62 7142.21,1916.29 7147.40,1880.88 7149.90,1854.40 7150.15,1830.37 7147.56,1801.67">
        <lane id="-151595428_0" index="0" speed="5.56" length="918.88" shape="6960.93,2553.59 6957.29,2530.23 6941.22,2481.81 6931.27,2446.11 6924.38,2380.40 6932.80,2348.12 6945.23,2300.93 6954.42,2272.37 6965.60,2264.30 6980.24,2265.68 7009.57,2280.13 7045.18,2295.27 7050.99,2296.98 7061.31,2298.02 7070.23,2294.83 7076.35,2289.57 7081.25,2280.87 7092.33,2245.74 7098.78,2217.59 7106.02,2179.62 7109.02,2153.41 7121.12,2049.16 7129.68,1987.40 7140.58,1916.04 7145.77,1880.65 7148.25,1854.24 7148.50,1830.35 7145.91,1801.81"/>
    </edge>
    <edge id="-153791762" from="1664316730" to="294924378" priority="1" type="highway.track" shape="8539.18,6369.97 8496.20,6353.47 8435.41,6332.80 8407.77,6318.55 8382.46,6294.58 8349.50,6261.48 8328.75,6232.85 8314.27,6199.07 8303.61,6180.99 8273.49,6159.76 8232.81,6134.24 8195.15,6116.23 8180.32,6116.87 8153.42,6125.67 8122.80,6127.70 8109.40,6113.59">
        <lane id="-153791762_0" index="0" speed="5.56" length="531.70" shape="8538.59,6371.51 8495.61,6355.01 8434.88,6334.36 8406.81,6319.91 8381.32,6295.78 8348.33,6262.65 8327.31,6233.67 8312.75,6199.72 8302.37,6182.14 8272.54,6161.11 8231.93,6135.63 8194.81,6117.90 8180.62,6118.51 8153.74,6127.30 8122.14,6129.39 8111.67,6118.38"/>
    </edge>
    <edge id="-157937238#0" from="2063206449" to="1701696476" priority="4" type="highway.residential" shape="8528.15,4578.41 8527.14,4585.59 8519.67,4603.40 8506.57,4619.21 8489.25,4633.52 8478.79,4647.75 8473.22,4664.25 8473.14,4707.26 8472.49,4716.28">
        <lane id="-157937238#0_0" index="0" speed="13.89" length="151.60" shape="8529.09,4583.56 8528.74,4586.03 8521.10,4604.26 8507.74,4620.38 8490.46,4634.66 8480.27,4648.52 8474.87,4664.52 8474.79,4707.27 8474.13,4716.40"/>
    </edge>
    <edge id="-157937238#1" from="311042417" to="2063206449" priority="4" type="highway.residential" shape="8510.89,4543.40 8515.79,4551.82 8525.77,4570.76 8528.15,4578.41">
        <lane id="-157937238#1_0" index="0" speed="13.89" length="33.32" shape="8513.73,4544.99 8517.21,4550.99 8527.30,4570.13 8528.71,4574.66"/>
    </edge>
    <edge id="-157937238#2" from="2063206443" to="311042417" priority="4" type="highway.residential">
        <lane id="-157937238#2_0" index="0" speed="13.89" length="83.86" shape="8468.54,4460.51 8508.02,4534.49"/>
    </edge>
    <edge id="-157937239" from="1701696476" to="1701696478" priority="4" type="highway.residential">
        <lane id="-157937239_0" index="0" speed="13.89" length="7.41" shape="8474.13,4716.40 8473.59,4723.78"/>
    </edge>
    <edge id="-157937240" from="1701696478" to="311042384" priority="4" type="highway.residential">
        <lane id="-157937240_0" index="0" speed="13.89" length="3.50" shape="8468.78,4733.17 8465.52,4734.46"/>
    </edge>
    <edge id="-157937242#0" from="1569840811" to="1701696478" priority="4" type="highway.residential" shape="8735.95,4622.73 8639.40,4663.59 8471.46,4730.33">
        <lane id="-157937242#0_0" index="0" speed="13.89" length="266.99" shape="8725.61,4628.90 8640.04,4665.11 8478.28,4729.40"/>
    </edge>
    <edge id="-157937242#1" from="441383879" to="1569840811" priority="4" type="highway.residential" shape="9036.18,4623.52 8990.73,4638.00 8967.45,4640.81 8925.32,4636.80 8876.84,4627.58 8816.83,4618.43 8756.78,4617.47 8735.95,4622.73">
        <lane id="-157937242#1_0" index="0" speed="13.89" length="302.92" shape="9036.68,4625.09 8991.08,4639.62 8967.47,4642.47 8925.17,4638.45 8876.54,4629.21 8816.58,4620.06 8756.97,4619.13 8738.53,4623.78"/>
    </edge>
    <edge id="-161161304" from="311042464" to="1731581773" priority="6" type="highway.tertiary">
        <lane id="-161161304_0" index="0" speed="13.89" length="13.52" shape="6563.39,4112.18 6550.06,4114.50"/>
    </edge>
    <edge id="-163005665#0" from="1747850872" to="1747850886" priority="4" type="highway.residential">
        <lane id="-163005665#0_0" index="0" speed="13.89" length="155.45" shape="8595.31,5445.03 8448.45,5495.97"/>
    </edge>
    <edge id="-163005665#1" from="1747850875" to="1747850872" priority="4" type="highway.residential">
        <lane id="-163005665#1_0" index="0" speed="13.89" length="7.79" shape="8603.76,5447.24 8596.30,5445.00"/>
    </edge>
    <edge id="-163005666" from="1747850858" to="1747850854" priority="4" type="highway.residential">
        <lane id="-163005666_0" index="0" speed="13.89" length="27.84" shape="8301.34,5366.20 8322.54,5348.15"/>
    </edge>
    <edge id="-163005667#0" from="1747850858" to="1747850885" priority="4" type="highway.residential" shape="8298.58,5370.71 8348.42,5420.39 8365.09,5437.01 8265.44,5492.15">
        <lane id="-163005667#0_0" index="0" speed="13.89" length="207.15" shape="8303.31,5373.09 8349.59,5419.22 8367.81,5437.39 8266.24,5493.59"/>
    </edge>
    <edge id="-163005667#1" from="2694677347" to="1747850858" priority="4" type="highway.residential">
        <lane id="-163005667#1_0" index="0" speed="13.89" length="56.77" shape="8255.89,5326.78 8296.54,5366.42"/>
    </edge>
    <edge id="-163005667#2" from="1747850755" to="2694677347" priority="4" type="highway.residential" shape="8177.94,5022.42 8179.66,5073.26 8188.86,5144.24 8229.16,5303.00 8254.74,5327.96">
        <lane id="-163005667#2_0" index="0" speed="13.89" length="320.70" shape="8179.59,5022.37 8181.31,5073.20 8190.49,5144.02 8230.64,5302.15 8255.89,5326.78"/>
    </edge>
    <edge id="-163005668" from="1747850991" to="1747850976" priority="1" type="highway.track" shape="8581.00,6104.78 8545.26,6095.59 8519.14,6086.50 8498.40,6075.35 8475.67,6065.82 8453.20,6061.67 8437.32,6055.87 8428.62,6047.18 8422.89,6035.66 8418.76,6024.73">
        <lane id="-163005668_0" index="0" speed="5.56" length="183.26" shape="8580.59,6106.38 8544.85,6097.19 8518.59,6088.05 8497.61,6076.80 8475.19,6067.41 8452.90,6063.30 8436.41,6057.29 8427.26,6048.16 8421.41,6036.39 8419.94,6032.51"/>
    </edge>
    <edge id="-163005669#0" from="1747850842" to="1761283047" priority="1" type="highway.track" shape="8686.84,5271.82 8675.86,5252.97 8650.75,5182.17 8626.68,5128.40 8599.39,5090.83 8590.16,5082.07">
        <lane id="-163005669#0_0" index="0" speed="5.56" length="197.15" shape="8684.21,5270.59 8674.36,5253.67 8649.19,5182.72 8625.25,5129.23 8599.57,5093.89"/>
    </edge>
    <edge id="-163005669#1" from="1761283085" to="1747850842" priority="1" type="highway.track" shape="8895.83,5252.84 8881.04,5252.95 8831.45,5267.37 8759.25,5260.82 8726.90,5262.81 8686.84,5271.82">
        <lane id="-163005669#1_0" index="0" speed="5.56" length="209.68" shape="8895.85,5254.49 8881.28,5254.60 8831.61,5269.04 8759.10,5262.46 8727.00,5264.45 8689.52,5272.91"/>
    </edge>
    <edge id="-163005669#2" from="1640514546" to="1761283085" priority="1" type="highway.track" shape="9102.18,5286.60 9066.63,5287.17 9026.58,5283.17 8974.65,5277.58 8943.53,5264.06 8914.16,5253.16 8895.83,5252.84">
        <lane id="-163005669#2_0" index="0" speed="5.56" length="211.67" shape="9102.21,5288.25 9066.66,5288.82 9026.41,5284.81 8974.23,5279.19 8942.87,5265.58 8913.85,5254.80 8895.80,5254.49"/>
    </edge>
    <edge id="-163005674" from="1747850976" to="1747850949" priority="1" type="highway.track" shape="8418.76,6024.73 8410.83,6013.23 8394.26,5999.25 8368.70,5987.15 8334.75,5976.75 8296.03,5969.60 8271.16,5965.48 8244.12,5964.18 8216.84,5959.29 8180.25,5945.32 8164.52,5935.32 8158.42,5927.00 8155.93,5918.96">
        <lane id="-163005674_0" index="0" speed="5.56" length="298.55" shape="8418.93,6027.88 8409.60,6014.35 8393.36,6000.65 8367.99,5988.64 8334.27,5978.33 8295.73,5971.22 8270.89,5967.11 8244.04,5965.83 8216.40,5960.89 8179.51,5946.80 8163.37,5936.55 8156.93,5927.76 8154.35,5919.45"/>
    </edge>
    <edge id="-163005684#0" from="3202316551" to="1747851004" priority="1" type="highway.track" shape="8769.98,6135.65 8758.28,6136.05 8752.49,6137.71 8720.36,6165.42 8713.99,6168.48 8709.18,6167.94 8696.48,6156.21">
        <lane id="-163005684#0_0" index="0" speed="5.56" length="90.50" shape="8769.84,6137.31 8758.54,6137.69 8753.29,6139.20 8721.27,6166.81 8714.27,6170.17 8708.46,6169.52 8695.36,6157.42"/>
    </edge>
    <edge id="-163005684#1" from="1747850974" to="3202316551" priority="1" type="highway.track" shape="8951.44,6004.60 8933.45,6029.78 8921.91,6048.25 8917.70,6064.39 8917.32,6081.76 8919.39,6102.34 8916.34,6107.89 8911.29,6112.31 8878.94,6118.31 8842.88,6121.81 8798.40,6126.43 8794.02,6127.87 8784.29,6135.56 8781.10,6136.60 8769.98,6135.65">
        <lane id="-163005684#1_0" index="0" speed="5.56" length="267.46" shape="8952.79,6005.56 8934.80,6030.74 8923.45,6048.91 8919.34,6064.62 8918.97,6081.79 8921.08,6102.68 8917.64,6108.94 8912.04,6113.85 8879.24,6119.94 8843.04,6123.45 8798.75,6128.05 8794.81,6129.35 8785.08,6137.04 8781.30,6138.27 8770.03,6137.32"/>
    </edge>
    <edge id="-163005686" from="1747850980" to="1747850976" priority="1" type="highway.track" shape="8452.52,6036.33 8432.21,6028.08 8418.76,6024.73">
        <lane id="-163005686_0" index="0" speed="5.56" length="27.85" shape="8451.90,6037.86 8431.59,6029.61 8425.83,6028.18"/>
    </edge>
    <edge id="-163005689#0" from="1747850851" to="1747850875" priority="1" type="highway.track" shape="8577.37,5334.43 8610.08,5436.07 8609.71,5447.30">
        <lane id="-163005689#0_0" index="0" speed="5.56" length="112.67" shape="8579.00,5334.11 8611.74,5435.84 8611.55,5441.64"/>
    </edge>
    <edge id="-163005689#1" from="1761283052" to="1747850851" priority="1" type="highway.track" shape="8609.56,5139.48 8616.30,5168.23 8615.32,5191.88 8595.04,5233.48 8577.49,5278.01 8574.79,5301.18 8574.92,5322.04 8577.37,5334.43">
        <lane id="-163005689#1_0" index="0" speed="5.56" length="200.19" shape="8612.05,5142.86 8617.96,5168.07 8616.96,5192.29 8596.52,5234.21 8579.11,5278.41 8576.43,5301.37 8576.57,5321.87 8578.96,5333.93"/>
    </edge>
    <edge id="-163005689#2" from="1761283047" to="1761283052" priority="1" type="highway.track">
        <lane id="-163005689#2_0" index="0" speed="5.56" length="39.08" shape="8596.53,5095.79 8609.05,5132.82"/>
    </edge>
    <edge id="-163005689#3" from="1920238669" to="1761283047" priority="1" type="highway.track">
        <lane id="-163005689#3_0" index="0" speed="5.56" length="20.84" shape="8588.07,5071.32 8595.07,5090.94"/>
    </edge>
    <edge id="-163005689#4" from="1761283045" to="1920238669" priority="1" type="highway.track">
        <lane id="-163005689#4_0" index="0" speed="5.56" length="14.20" shape="8583.30,5057.94 8588.07,5071.32"/>
    </edge>
    <edge id="-163005706#0" from="294924378" to="294924381" priority="6" type="highway.tertiary" shape="8109.40,6113.59 8116.00,6108.29 8118.37,6100.05 8112.66,6083.90 8059.13,6023.43">
        <lane id="-163005706#0_0" index="0" speed="22.22" length="104.76" shape="8112.29,6109.15 8114.56,6107.33 8116.64,6100.10 8111.21,6084.76 8059.48,6026.31"/>
    </edge>
    <edge id="-163005706#1" from="3014700467" to="294924378" priority="6" type="highway.tertiary" shape="7939.31,6145.40 7940.64,6142.23 7957.42,6120.03 7972.82,6094.83 7978.54,6087.93 7984.98,6083.37 7997.01,6080.06 8010.38,6078.73 8023.52,6080.04 8036.47,6083.09 8075.79,6109.41 8085.28,6112.64 8096.70,6114.53 8109.40,6113.59">
        <lane id="-163005706#1_0" index="0" speed="22.22" length="207.06" shape="7939.12,6141.58 7939.20,6141.40 7956.10,6119.04 7971.41,6093.97 7977.41,6086.71 7984.27,6081.85 7996.58,6078.47 8010.38,6077.07 8023.69,6078.39 8037.14,6081.56 8076.53,6107.92 8085.81,6111.08 8096.78,6112.87 8106.24,6112.17"/>
    </edge>
    <edge id="-163005706#2" from="274398096" to="3014700467" priority="6" type="highway.tertiary" shape="8156.03,6898.52 8151.34,6877.00 8153.88,6851.96 8164.50,6832.54 8179.02,6807.14 8183.29,6797.66 8192.11,6767.43 8187.35,6730.80 8177.25,6671.98 8174.59,6628.65 8181.22,6571.87 8179.61,6557.44 8175.82,6543.02 8167.00,6534.23 8155.27,6525.46 8062.36,6469.79 8037.44,6451.17 8028.58,6437.92 7953.29,6268.65 7947.01,6226.47 7936.19,6181.16 7934.82,6165.66 7935.65,6154.12 7939.31,6145.40">
        <lane id="-163005706#2_0" index="0" speed="22.22" length="854.75" shape="8154.42,6898.89 8149.67,6877.10 8152.27,6851.46 8163.05,6831.75 8177.59,6806.32 8181.78,6796.99 8190.43,6767.30 8185.71,6731.01 8175.62,6672.26 8172.93,6628.60 8179.56,6571.87 8177.97,6557.62 8174.33,6543.88 8165.83,6535.39 8154.29,6526.78 8061.51,6471.21 8036.23,6452.32 8027.20,6438.84 7951.69,6269.12 7945.37,6226.72 7934.58,6181.55 7933.17,6165.80 7934.03,6153.73 7935.12,6151.13"/>
    </edge>
    <edge id="-163005706#3" from="294924444" to="274398096" priority="6" type="highway.tertiary" shape="8471.62,7383.01 8405.42,7371.52 8348.85,7337.18 8310.97,7313.30 8290.32,7280.55 8278.22,7273.12 8236.64,7243.92 8180.38,7203.67 8155.96,7169.55 8149.08,7143.90 8140.37,7115.39 8138.03,7093.73 8140.30,7068.73 8144.92,7046.86 8146.31,7034.36 8149.94,7013.47 8160.41,6939.09 8160.78,6918.22 8160.37,6914.66 8156.03,6898.52">
        <lane id="-163005706#3_0" index="0" speed="22.22" length="670.64" shape="8471.34,7384.63 8404.84,7373.09 8347.99,7338.59 8309.77,7314.50 8289.13,7281.75 8277.36,7274.53 8235.69,7245.27 8179.20,7204.85 8154.44,7170.27 8147.48,7144.33 8138.75,7115.72 8136.38,7093.75 8138.66,7068.58 8143.30,7046.52 8144.67,7034.18 8148.31,7013.19 8158.78,6938.86 8159.13,6918.19 8158.73,6914.85 8154.42,6898.89"/>
    </edge>
    <edge id="-163593310" from="1634119582" to="1752575495" priority="1" type="highway.track" shape="6891.62,5759.99 6865.46,5767.02 6842.36,5775.70">
        <lane id="-163593310_0" index="0" speed="5.56" length="46.58" shape="6892.04,5761.58 6865.89,5768.61 6847.64,5775.48"/>
    </edge>
    <edge id="-164497031" from="1761282962" to="301479609" priority="4" type="highway.residential" shape="7437.89,4657.75 7437.74,4651.44 7437.53,4642.97">
        <lane id="-164497031_0" index="0" speed="13.89" length="9.52" shape="7436.24,4657.79 7436.09,4651.48 7436.01,4648.28"/>
    </edge>
    <edge id="-164497032#0" from="311042760" to="1761282962" priority="4" type="highway.residential">
        <lane id="-164497032#0_0" index="0" speed="13.89" length="45.95" shape="7438.17,4703.72 7436.24,4657.81"/>
    </edge>
    <edge id="-164497032#1" from="309956334" to="311042760" priority="4" type="highway.residential">
        <lane id="-164497032#1_0" index="0" speed="13.89" length="3.54" shape="7439.09,4708.06 7438.29,4704.61"/>
    </edge>
    <edge id="-164497033" from="1761283177" to="1747850897" priority="4" type="highway.residential">
        <lane id="-164497033_0" index="0" speed="13.89" length="13.52" shape="8721.81,5566.63 8714.11,5555.52"/>
    </edge>
    <edge id="-164497034#0" from="1747850887" to="1747850875" priority="4" type="highway.residential">
        <lane id="-164497034#0_0" index="0" speed="13.89" length="87.80" shape="8678.71,5506.51 8611.05,5450.55"/>
    </edge>
    <edge id="-164497034#1" from="1747850897" to="1747850887" priority="4" type="highway.residential">
        <lane id="-164497034#1_0" index="0" speed="13.89" length="60.09" shape="8714.13,5555.54 8678.99,5506.80"/>
    </edge>