<?xml version="1.0" encoding="UTF-8"?>

<routes xmlns:xsi="http://www.w3.org/2001/XMLSchema-instance" xsi:noNamespaceSchemaLocation="http://sumo-sim.org/xsd/routes_file.xsd">
  <vehicle id="0" depart="0.0">
    <route edges="0#0 1" />
  </vehicle>
  <vehicle id="1" depart="0.0">
    <route edges="0#1 1" />
  </vehicle>
  <vehicle id="2" depart="0.0">
    <route edges="0#2 1" />
  </vehicle>
  <vehicle id="3" depart="0.0">
    <route edges="0#3 1" />
  </vehicle>
  <vehicle id="4" depart="0.0">
    <route edges="0#4 1" />
  </vehicle>
  <vehicle id="5" depart="0.0">
    <route edges="0#5 1" />
  </vehicle>
  <vehicle id="6" depart="0.0">
    <route edges="0#6 1" />
  </vehicle>
  <vehicle id="7" depart="0.0">
    <route edges="0#7 1" />
  </vehicle>
  <vehicle id="8" depart="0.0">
    <route edges="0#8 1" />
  </vehicle>
  <vehicle id="9" depart="0.0">
    <route edges="0#9 1" />
  </vehicle>
  <vehicle id="10" depart="0.0">
    <route edges="0#10 1" />
  </vehicle>
  <vehicle id="11" depart="0.0">
    <route edges="0#11 1" />
  </vehicle>
  <vehicle id="12" depart="0.0">
    <route edges="0#12 1" />
  </vehicle>
  <vehicle id="13" depart="0.0">
    <route edges="0#13 1" />
  </vehicle>
  <vehicle id="14" depart="0.0">
    <route edges="0#14 1" />
  </vehicle>
  <vehicle id="15" depart="0.0">
    <route edges="0#15 1" />
  </vehicle>
  <vehicle id="16" depart="0.0">
    <route edges="0#16 1" />
  </vehicle>
  <vehicle id="17" depart="0.0">
    <route edges="0#17 1" />
  </vehicle>
  <vehicle id="18" depart="0.0">
    <route edges="0#18 1" />
  </vehicle>
  <vehicle id="19" depart="0.0">
    <route edges="0#19 1" />
  </vehicle>
  <vehicle id="20" depart="0.0">
    <route edges="0#20 1" />
  </vehicle>
  <vehicle id="21" depart="0.0">
    <route edges="0#21 1" />
  </vehicle>
  <vehicle id="22" depart="0.0">
    <route edges="0#22 1" />
  </vehicle>
  <vehicle id="23" depart="0.0">
    <route edges="0#23 1" />
  </vehicle>
  <vehicle id="24" depart="0.0">
    <route edges="0#24 1" />
    </vehicle>
</routes>
