<?xml version="1.0" encoding="UTF-8"?>

<net version="0.13" xmlns:xsi="http://www.w3.org/2001/XMLSchema-instance" xsi:noNamespaceSchemaLocation="http://sumo-sim.org/xsd/net_file.xsd">
    <location netOffset="0.0,0.0" convBoundary="0.00,0.00,665.37,811.53" origBoundary="14.388600,50.068250,14.516399,50.128835" projParameter="+proj=utm +zone=33 +ellps=WGS84 +datum=WGS84 +units=m +no_defs"/>
    <edge id="0" from="0" to="1" priority="7" type="highway.secondary" shape="0,0 1,1">
        <lane id="0_0" index="0" speed="42" length="16.72"   shape=" 5.0,0.0    5.0,100.0"/>
        <lane id="0_1" index="1" speed="42" length="16.72"   shape="25.0,0.0   25.0,100.0"/>
        <lane id="0_2" index="2" speed="42" length="16.72"   shape="45.0,0.0   45.0,100.0"/>
        <lane id="0_3" index="3" speed="42" length="16.72"   shape="65.0,0.0   65.0,100.0"/>
        <lane id="0_4" index="4" speed="42" length="16.72"   shape="85.0,0.0   85.0,100.0"/>
        <lane id="0_5" index="5" speed="42" length="16.72"   shape="105.0,0.0 105.0,100.0"/>
        <lane id="0_6" index="6" speed="42" length="16.72"   shape="125.0,0.0 125.0,100.0"/>
        <lane id="0_7" index="7" speed="42" length="16.72"   shape="145.0,0.0 145.0,100.0"/>
        <lane id="0_8" index="8" speed="42" length="16.72"   shape="165.0,0.0 165.0,100.0"/>
        <lane id="0_9" index="9" speed="42" length="16.72"   shape="185.0,0.0 185.0,100.0"/>
        <lane id="0_10" index="10" speed="42" length="16.72" shape="205.0,0.0 205.0,100.0"/>
        <lane id="0_11" index="11" speed="42" length="16.72" shape="225.0,0.0 225.0,100.0"/>
        <lane id="0_12" index="12" speed="42" length="16.72" shape="245.0,0.0 245.0,100.0"/>
        <lane id="0_13" index="13" speed="42" length="16.72" shape="265.0,0.0 265.0,100.0"/>
        <lane id="0_14" index="14" speed="42" length="16.72" shape="285.0,0.0 285.0,100.0"/>
        <lane id="0_15" index="15" speed="42" length="16.72" shape="305.0,0.0 305.0,100.0"/>
        <lane id="0_16" index="16" speed="42" length="16.72" shape="325.0,0.0 325.0,100.0"/>
        <lane id="0_17" index="17" speed="42" length="16.72" shape="345.0,0.0 345.0,100.0"/>
        <lane id="0_18" index="18" speed="42" length="16.72" shape="365.0,0.0 365.0,100.0"/>
        <lane id="0_19" index="19" speed="42" length="16.72" shape="385.0,0.0 385.0,100.0"/>
        <lane id="0_20" index="20" speed="42" length="16.72" shape="405.0,0.0 405.0,100.0"/>
        <lane id="0_21" index="21" speed="42" length="16.72" shape="425.0,0.0 425.0,100.0"/>
        <lane id="0_22" index="22" speed="42" length="16.72" shape="445.0,0.0 445.0,100.0"/>
        <lane id="0_23" index="23" speed="42" length="16.72" shape="465.0,0.0 465.0,100.0"/>
        <lane id="0_24" index="24" speed="42" length="16.72" shape="485.0,0.0 485.0,100.0"/>
    </edge>
    <edge id="1" from="1" to="2" priority="7" type="highway.secondary" shape="45,400 45,450">
        <lane id="1_0" index="0" speed="42" length="16.72" shape="45,100 45,150"/>
    </edge>
    <edge id="2" from="2" to="3" priority="7" type="highway.secondary" shape="0,0 1,1">
        <lane id="2_0" index="0" speed="42" length="16.72"   shape="  5.0,150.0   5.0,250.0"/>
        <lane id="2_1" index="1" speed="42" length="16.72"   shape=" 25.0,150.0  25.0,250.0"/>
        <lane id="2_2" index="2" speed="42" length="16.72"   shape=" 45.0,150.0  45.0,250.0"/>
        <lane id="2_3" index="3" speed="42" length="16.72"   shape=" 65.0,150.0  65.0,250.0"/>
        <lane id="2_4" index="4" speed="42" length="16.72"   shape=" 85.0,150.0  85.0,250.0"/>
        <lane id="2_5" index="5" speed="42" length="16.72"   shape="105.0,150.0 105.0,250.0"/>
        <lane id="2_6" index="6" speed="42" length="16.72"   shape="125.0,150.0 125.0,250.0"/>
        <lane id="2_7" index="7" speed="42" length="16.72"   shape="145.0,150.0 145.0,250.0"/>
        <lane id="2_8" index="8" speed="42" length="16.72"   shape="165.0,150.0 165.0,250.0"/>
        <lane id="2_9" index="9" speed="42" length="16.72"   shape="185.0,150.0 185.0,250.0"/>
        <lane id="2_10" index="10" speed="42" length="16.72" shape="205.0,150.0 205.0,250.0"/>
        <lane id="2_11" index="11" speed="42" length="16.72" shape="225.0,150.0 225.0,250.0"/>
        <lane id="2_12" index="12" speed="42" length="16.72" shape="245.0,150.0 245.0,250.0"/>
        <lane id="2_13" index="13" speed="42" length="16.72" shape="265.0,150.0 265.0,250.0"/>
        <lane id="2_14" index="14" speed="42" length="16.72" shape="285.0,150.0 285.0,250.0"/>
        <lane id="2_15" index="15" speed="42" length="16.72" shape="305.0,150.0 305.0,250.0"/>
        <lane id="2_16" index="16" speed="42" length="16.72" shape="325.0,150.0 325.0,250.0"/>
        <lane id="2_17" index="17" speed="42" length="16.72" shape="345.0,150.0 345.0,250.0"/>
        <lane id="2_18" index="18" speed="42" length="16.72" shape="365.0,150.0 365.0,250.0"/>
        <lane id="2_19" index="19" speed="42" length="16.72" shape="385.0,150.0 385.0,250.0"/>
        <lane id="2_20" index="20" speed="42" length="16.72" shape="405.0,150.0 405.0,250.0"/>
        <lane id="2_21" index="21" speed="42" length="16.72" shape="425.0,150.0 425.0,250.0"/>
        <lane id="2_22" index="22" speed="42" length="16.72" shape="445.0,150.0 445.0,250.0"/>
        <lane id="2_23" index="23" speed="42" length="16.72" shape="465.0,150.0 465.0,250.0"/>
        <lane id="2_24" index="24" speed="42" length="16.72" shape="485.0,150.0 485.0,250.0"/>
    </edge>
    <connection from="0" to="1" fromLane="2" toLane="0" dir="s" state="M"/>
    <connection from="1" to="2" fromLane="0" toLane="2" dir="s" state="M"/>
</net>
