<?xml version="1.0" encoding="UTF-8"?>

<net version="0.13" xmlns:xsi="http://www.w3.org/2001/XMLSchema-instance" xsi:noNamespaceSchemaLocation="http://sumo-sim.org/xsd/net_file.xsd">
    <location netOffset="0.0,0.0" convBoundary="0.00,0.00,665.37,811.53" origBoundary="14.388600,50.068250,14.516399,50.128835" projParameter="+proj=utm +zone=33 +ellps=WGS84 +datum=WGS84 +units=m +no_defs"/>
    <edge id="0" from="deadend0" to="" priority="7" type="highway.secondary">
        <lane id="0_0" index="0" speed="1" length="16.72" shape="0.0,-20.0 0.0,20.0"/>
    </edge>
    <edge id="1" from="deadend1" to="" priority="7" type="highway.secondary">
        <lane id="1_0" index="0" speed="1" length="16.72" shape="10.0,-20.0 10.0,20.0"/>
    </edge>
    <edge id="2" priority="7" type="highway.secondary">
        <lane id="2_0" index="0" speed="1" length="16.72" shape="0.0,20.0 0.0,40.0"/>
        <lane id="2_1" index="1" speed="1" length="16.72" shape="10.0,20.0 10.0,40.0"/>
    </edge>
    <edge id="3" priority="7" type="highway.secondary">
        <lane id="3_0" index="0" speed="1" length="16.72" shape="0.0,40.0 10.0,60.0"/>
        <lane id="3_1" index="1" speed="1" length="16.72" shape="10.0,40.0 10.0,60.0"/>
    </edge>
    <edge id="4" priority="7" type="highway.secondary">
        <lane id="4_0" index="0" speed="1" length="16.72" shape="10.0,60.0 10.0,80.0"/>
    </edge>

    <junction id="deadend0" type="dead_end" x="0.00" y="0.00" incLanes="" intLanes="" shape=""/>
    <junction id="deadend1" type="dead_end" x="10.00" y="0.00" incLanes="" intLanes="" shape=""/>

    <connection from="0" to="2" fromLane="0" toLane="0" dir="s" state="M"/>
    <connection from="1" to="2" fromLane="0" toLane="1" dir="s" state="M"/>

    <connection from="2" to="3" fromLane="0" toLane="0" dir="s" state="M"/>
    <connection from="2" to="3" fromLane="1" toLane="1" dir="s" state="M"/>

    <connection from="3" to="4" fromLane="0" toLane="0" dir="s" state="M"/>
    <connection from="3" to="4" fromLane="1" toLane="0" dir="s" state="M"/>
</net>
