<?xml version="1.0" encoding="UTF-8"?>
<!-- generated on 2018-07-23 10:05:20.335540 by $Id$
  options: -n test_sda1\test_sda1.net.xml -e 50 -l -o test_sda1\test_sda1.trips.xml
-->
<routes xmlns:xsi="http://www.w3.org/2001/XMLSchema-instance" xsi:noNamespaceSchemaLocation="http://sumo.dlr.de/xsd/routes_file.xsd">
</routes>
