<?xml version="1.0" encoding="UTF-8"?>

<!-- generated on Mon Sep  8 11:40:40 2014 by SUMO netconvert Version 0.17.1
<?xml version="1.0" encoding="UTF-8"?>

<configuration xmlns:xsi="http://www.w3.org/2001/XMLSchema-instance" xsi:noNamespaceSchemaLocation="http://sumo.sf.net/xsd/netconvertConfiguration.xsd">

    <input>
        <osm-files value="/home/martin/projects/agentdrivecity/test/sumo_maps/graz/graz.osm"/>
    </input>

    <output>
        <output-file value="/home/martin/projects/agentdrivecity/test/sumo_maps/graz/graz.net.xml"/>
    </output>

    <projection>
        <proj.utm value="true"/>
    </projection>

    <tls_building>
        <tls.join value="true"/>
    </tls_building>

    <edge_removal>
        <remove-edges.by-vclass value="hov,taxi,bus,delivery,transport,lightrail,cityrail,rail_slow,rail_fast,motorcycle,bicycle,pedestrian"/>
    </edge_removal>

    <processing>
        <no-internal-links value="true"/>
        <no-turnarounds value="true"/>
    </processing>

</configuration>
-->

<net version="0.13" xmlns:xsi="http://www.w3.org/2001/XMLSchema-instance" xsi:noNamespaceSchemaLocation="http://sumo.sf.net/xsd/net_file.xsd">

    <location netOffset="-411287.60,-5655710.92" convBoundary="0.00,0.00,1456.25,1125.77" origBoundary="13.733535,51.044770,13.754990,51.056330" projParameter="+proj=utm +zone=33 +ellps=WGS84 +datum=WGS84 +units=m +no_defs"/>

    <edge id="-109201729#0" from="2539286254" to="357917230" priority="4" type="highway.residential">
        <lane id="-109201729#0_0" index="0" speed="8.33" length="17.51" shape="683.10,575.35 666.35,580.43"/>
    </edge>
    <edge id="-109201729#1" from="2539286270" to="2539286254" priority="4" type="highway.residential">
        <lane id="-109201729#1_0" index="0" speed="8.33" length="21.08" shape="712.21,566.04 692.15,572.52"/>
    </edge>
    <edge id="-109201729#2" from="26889714" to="2539286270" priority="4" type="highway.residential">
        <lane id="-109201729#2_0" index="0" speed="8.33" length="5.80" shape="717.72,564.23 712.22,566.04"/>
    </edge>
    <edge id="-122899576" from="29138121" to="902631730" priority="7" type="highway.secondary">
        <lane id="-122899576_0" index="0" speed="13.89" length="13.10" shape="366.62,862.54 378.80,857.71"/>
    </edge>
    <edge id="-12497441#0" from="899013124" to="899015848" priority="4" type="highway.residential" shape="136.54,798.37 118.31,775.34 100.50,753.24">
        <lane id="-12497441#0_0" index="0" speed="8.33" length="54.74" shape="134.31,798.22 117.02,776.36 100.15,755.44"/>
    </edge>
    <edge id="-12497441#1" from="899005546" to="899013124" priority="4" type="highway.residential" shape="171.42,839.35 161.19,828.09 147.54,812.20 136.54,798.37">
        <lane id="-12497441#1_0" index="0" speed="8.33" length="52.23" shape="170.05,840.30 159.97,829.20 146.29,813.27 136.18,800.57"/>
    </edge>
    <edge id="-12497441#2" from="2030585751" to="899005546" priority="4" type="highway.residential" shape="223.51,868.60 220.51,867.02 193.99,855.01 181.44,847.72 171.42,839.35">
        <lane id="-12497441#2_0" index="0" speed="8.33" length="57.17" shape="220.07,868.65 219.74,868.48 193.31,856.51 180.62,849.15 170.54,840.76"/>
    </edge>
    <edge id="-12497441#3" from="899002736" to="2030585751" priority="4" type="highway.residential">
        <lane id="-12497441#3_0" index="0" speed="8.33" length="6.89" shape="230.96,872.79 224.42,870.64"/>
    </edge>
    <edge id="-12497441#4" from="899001468" to="899002736" priority="4" type="highway.residential" shape="295.58,863.21 287.91,861.00 281.05,860.18 271.05,862.29 258.79,866.65 248.99,870.30 241.25,872.40 231.79,871.33">
        <lane id="-12497441#4_0" index="0" speed="8.33" length="64.92" shape="294.55,864.63 287.45,862.59 281.12,861.85 271.39,863.91 259.35,868.21 249.57,871.85 241.37,874.08 231.94,873.01"/>
    </edge>
    <edge id="-138301151#0" from="2271099619" to="1516305733" priority="15" type="highway.service|railway.tram">
        <lane id="-138301151#0_0" index="0" speed="27.78" length="57.03" shape="546.62,116.63 507.82,74.85"/>
    </edge>
    <edge id="-138301151#1" from="1701677107" to="2271099619" priority="15" type="highway.service|railway.tram">
        <lane id="-138301151#1_0" index="0" speed="27.78" length="1.36" shape="550.63,120.95 549.71,119.96"/>
    </edge>
    <edge id="-150792360" from="25873151" to="373098083" priority="3" type="highway.living_street">
        <lane id="-150792360_0" index="0" speed="2.78" length="50.88" shape="231.02,637.28 281.16,628.62"/>
    </edge>
    <edge id="-163468488#0" from="2510681713" to="26889716" priority="3" type="highway.living_street">
        <lane id="-163468488#0_0" index="0" speed="2.78" length="0.20" shape="642.15,662.80 642.28,662.65"/>
    </edge>
    <edge id="-163468488#1" from="304869417" to="2510681713" priority="3" type="highway.living_street" shape="615.42,685.32 626.09,679.58 634.34,673.34 641.04,666.57">
        <lane id="-163468488#1_0" index="0" speed="2.78" length="24.43" shape="616.45,682.89 625.30,678.12 633.35,672.02 636.35,668.98"/>
    </edge>
    <edge id="-163468488#2" from="2539490299" to="304869417" priority="3" type="highway.living_street">
        <lane id="-163468488#2_0" index="0" speed="2.78" length="0.20" shape="610.08,684.48 610.28,684.45"/>
    </edge>
    <edge id="-163468488#3" from="26889715" to="2539490299" priority="3" type="highway.living_street">
        <lane id="-163468488#3_0" index="0" speed="2.78" length="0.69" shape="601.61,685.55 602.30,685.49"/>
    </edge>
    <edge id="-175832929#0" from="1864886879" to="899125162" priority="3" type="highway.living_street">
        <lane id="-175832929#0_0" index="0" speed="2.78" length="45.02" shape="283.08,579.50 327.24,570.73"/>
    </edge>
    <edge id="-175832929#1" from="1863922999" to="1864886879" priority="3" type="highway.living_street">
        <lane id="-175832929#1_0" index="0" speed="2.78" length="49.59" shape="225.30,592.59 273.64,581.53"/>
    </edge>
    <edge id="-175926246#0" from="2561643166" to="253342949" priority="3" type="highway.living_street">
        <lane id="-175926246#0_0" index="0" speed="2.78" length="11.35" shape="295.66,689.54 294.88,700.86"/>
    </edge>
    <edge id="-175926246#1" from="373098083" to="2561643166" priority="3" type="highway.living_street" shape="286.19,629.43 294.39,684.10 294.01,689.42">
        <lane id="-175926246#1_0" index="0" speed="2.78" length="56.16" shape="288.54,633.95 296.04,684.04 295.66,689.54"/>
    </edge>
    <edge id="-175926246#2" from="1864886879" to="373098083" priority="3" type="highway.living_street">
        <lane id="-175926246#2_0" index="0" speed="2.78" length="38.28" shape="281.27,586.70 287.11,624.54"/>
    </edge>
    <edge id="-175926248#0" from="2543545630" to="29348305" priority="3" type="highway.living_street">
        <lane id="-175926248#0_0" index="0" speed="2.78" length="3.41" shape="433.15,439.60 432.23,436.32"/>
    </edge>
    <edge id="-175926248#1" from="2539305906" to="2543545630" priority="3" type="highway.living_street">
        <lane id="-175926248#1_0" index="0" speed="2.78" length="12.43" shape="436.50,451.57 433.15,439.60"/>
    </edge>
    <edge id="-175926248#2" from="533670587" to="2539305906" priority="3" type="highway.living_street">
        <lane id="-175926248#2_0" index="0" speed="2.78" length="24.44" shape="442.72,475.18 436.50,451.55"/>
    </edge>
    <edge id="-175926248#3" from="1864886872" to="533670587" priority="3" type="highway.living_street" shape="465.45,488.82 452.77,481.03 444.65,476.02">
        <lane id="-175926248#3_0" index="0" speed="2.78" length="18.12" shape="460.32,487.61 451.91,482.44 444.89,478.10"/>
    </edge>
    <edge id="-176192997#0" from="2569330407" to="1863922999" priority="3" type="highway.living_street">
        <lane id="-176192997#0_0" index="0" speed="2.78" length="42.91" shape="215.42,547.67 221.68,590.12"/>
    </edge>
    <edge id="-176192997#1" from="2569330400" to="2569330407" priority="3" type="highway.living_street">
        <lane id="-176192997#1_0" index="0" speed="2.78" length="40.49" shape="209.52,507.62 215.42,547.67"/>
    </edge>
    <edge id="-176192997#2" from="2563390540" to="2569330400" priority="3" type="highway.living_street">
        <lane id="-176192997#2_0" index="0" speed="2.78" length="16.30" shape="207.14,491.50 209.52,507.62"/>
    </edge>
    <edge id="-192397909#0" from="2562971895" to="2559452068" priority="4" type="highway.residential">
        <lane id="-192397909#0_0" index="0" speed="13.89" length="86.89" shape="142.61,606.27 58.24,627.05"/>
    </edge>
    <edge id="-192397909#1" from="2562971887" to="2562971895" priority="4" type="highway.residential" shape="169.08,594.79 169.75,597.62 142.21,604.67">
        <lane id="-192397909#1_0" index="0" speed="13.89" length="26.82" shape="168.60,599.62 142.62,606.26"/>
    </edge>
    <edge id="-192397909#10" from="2029129220" to="2029602492" priority="4" type="highway.residential">
        <lane id="-192397909#10_0" index="0" speed="13.89" length="12.94" shape="-9.75,630.22 3.18,630.56"/>
    </edge>
    <edge id="-192397909#11" from="2029129176" to="2029129220" priority="4" type="highway.residential" shape="7.13,636.83 3.14,634.23 0.00,632.12">
        <lane id="-192397909#11_0" index="0" speed="13.89" length="13.26" shape="1.95,635.42 -9.06,628.04"/>
    </edge>
    <edge id="-192397909#12" from="2559452068" to="2029129176" priority="4" type="highway.residential" shape="57.84,625.45 39.39,630.07 35.67,630.98 15.87,635.89 14.33,636.35 13.16,637.25 12.53,638.57 12.31,639.94 12.28,641.10 7.13,636.83">
        <lane id="-192397909#12_0" index="0" speed="13.89" length="57.15" shape="58.25,627.05 39.79,631.67 36.06,632.58 16.26,637.49 15.10,637.84 14.48,638.32 14.12,639.07 13.94,640.20 13.85,644.54 9.56,640.98"/>
    </edge>
    <edge id="-192397909#2" from="2029602496" to="2562971887" priority="4" type="highway.residential">
        <lane id="-192397909#2_0" index="0" speed="13.89" length="3.21" shape="169.94,591.29 170.68,594.41"/>
    </edge>
    <edge id="-192397909#3" from="2029602489" to="2029602496" priority="4" type="highway.residential">
        <lane id="-192397909#3_0" index="0" speed="13.89" length="28.25" shape="140.42,596.30 167.97,590.06"/>
    </edge>
    <edge id="-192397909#4" from="2562702394" to="2029602489" priority="4" type="highway.residential">
        <lane id="-192397909#4_0" index="0" speed="13.89" length="17.27" shape="123.57,600.11 140.42,596.30"/>
    </edge>
    <edge id="-192397909#5" from="2562971890" to="2562702394" priority="4" type="highway.residential">
        <lane id="-192397909#5_0" index="0" speed="13.89" length="16.32" shape="107.64,603.68 123.57,600.11"/>
    </edge>
    <edge id="-192397909#6" from="2029602493" to="2562971890" priority="4" type="highway.residential">
        <lane id="-192397909#6_0" index="0" speed="13.89" length="76.43" shape="33.69,623.11 107.61,603.68"/>
    </edge>
    <edge id="-192397909#7" from="2029602500" to="2029602493" priority="4" type="highway.residential">
        <lane id="-192397909#7_0" index="0" speed="13.89" length="27.22" shape="7.38,630.11 33.69,623.11"/>
    </edge>
    <edge id="-192397909#8" from="2029602491" to="2029602500" priority="4" type="highway.residential">
        <lane id="-192397909#8_0" index="0" speed="13.89" length="2.25" shape="4.91,630.39 7.14,630.16"/>
    </edge>
    <edge id="-192397909#9" from="2029602492" to="2029602491" priority="4" type="highway.residential">
        <lane id="-192397909#9_0" index="0" speed="13.89" length="1.55" shape="3.38,630.55 4.92,630.39"/>
    </edge>
    <edge id="-192427755#0" from="2029834474" to="2029834467" priority="4" type="highway.residential">
        <lane id="-192427755#0_0" index="0" speed="13.89" length="0.20" shape="169.16,651.98 169.35,651.91"/>
    </edge>
    <edge id="-192427755#1" from="2029775307" to="2029834474" priority="4" type="highway.residential">
        <lane id="-192427755#1_0" index="0" speed="13.89" length="0.20" shape="167.35,652.63 167.53,652.56"/>
    </edge>
    <edge id="-192427755#10" from="2029834443" to="2029834454" priority="4" type="highway.residential">
        <lane id="-192427755#10_0" index="0" speed="13.89" length="6.79" shape="124.51,685.81 118.86,689.58"/>
    </edge>
    <edge id="-192427755#11" from="2029834462" to="2029834443" priority="4" type="highway.residential">
        <lane id="-192427755#11_0" index="0" speed="13.89" length="5.12" shape="129.37,683.52 124.73,685.69"/>
    </edge>
    <edge id="-192427755#12" from="2029834471" to="2029834462" priority="4" type="highway.residential">
        <lane id="-192427755#12_0" index="0" speed="13.89" length="6.77" shape="135.92,681.26 129.52,683.46"/>
    </edge>
    <edge id="-192427755#13" from="2029834470" to="2029834471" priority="4" type="highway.residential">
        <lane id="-192427755#13_0" index="0" speed="13.89" length="6.83" shape="142.41,679.45 135.83,681.29"/>
    </edge>
    <edge id="-192427755#14" from="2029834460" to="2029834470" priority="4" type="highway.residential">
        <lane id="-192427755#14_0" index="0" speed="13.89" length="9.16" shape="151.23,677.08 142.39,679.45"/>
    </edge>
    <edge id="-192427755#15" from="2029834445" to="2029834460" priority="4" type="highway.residential">
        <lane id="-192427755#15_0" index="0" speed="13.89" length="5.93" shape="156.96,675.48 151.24,677.07"/>
    </edge>
    <edge id="-192427755#16" from="2029834469" to="2029834445" priority="4" type="highway.residential">
        <lane id="-192427755#16_0" index="0" speed="13.89" length="2.26" shape="159.19,674.75 157.04,675.46"/>
    </edge>
    <edge id="-192427755#17" from="2029834450" to="2029834469" priority="4" type="highway.residential">
        <lane id="-192427755#17_0" index="0" speed="13.89" length="1.97" shape="160.22,671.13 160.31,673.10"/>
    </edge>
    <edge id="-192427755#18" from="2029834455" to="2029834450" priority="4" type="highway.residential">
        <lane id="-192427755#18_0" index="0" speed="13.89" length="1.67" shape="160.29,669.32 160.22,670.99"/>
    </edge>
    <edge id="-192427755#19" from="2029834479" to="2029834455" priority="4" type="highway.residential">
        <lane id="-192427755#19_0" index="0" speed="13.89" length="1.28" shape="160.73,667.70 160.35,668.92"/>
    </edge>
    <edge id="-192427755#2" from="2029775308" to="2029775307" priority="4" type="highway.residential">
        <lane id="-192427755#2_0" index="0" speed="13.89" length="0.20" shape="165.44,654.43 165.44,654.23"/>
    </edge>
    <edge id="-192427755#20" from="2029834459" to="2029834479" priority="4" type="highway.residential">
        <lane id="-192427755#20_0" index="0" speed="13.89" length="0.49" shape="160.95,667.05 160.79,667.52"/>
    </edge>
    <edge id="-192427755#21" from="2029834475" to="2029834459" priority="4" type="highway.residential">
        <lane id="-192427755#21_0" index="0" speed="13.89" length="35.54" shape="196.18,656.24 162.02,666.05"/>
    </edge>
    <edge id="-192427755#22" from="2029834477" to="2029834475" priority="4" type="highway.residential">
        <lane id="-192427755#22_0" index="0" speed="13.89" length="22.00" shape="217.36,650.34 196.17,656.25"/>
    </edge>
    <edge id="-192427755#23" from="2029834466" to="2029834477" priority="4" type="highway.residential" shape="220.03,645.09 220.75,647.76 216.92,648.76">
        <lane id="-192427755#23_0" index="0" speed="13.89" length="2.88" shape="220.12,649.63 217.34,650.35"/>
    </edge>
    <edge id="-192427755#24" from="2029834451" to="2029834466" priority="4" type="highway.residential">
        <lane id="-192427755#24_0" index="0" speed="13.89" length="0.20" shape="220.67,641.53 220.73,641.72"/>
    </edge>
    <edge id="-192427755#25" from="2029834476" to="2029834451" priority="4" type="highway.residential">
        <lane id="-192427755#25_0" index="0" speed="13.89" length="42.78" shape="174.39,652.94 215.52,641.16"/>
    </edge>
    <edge id="-192427755#26" from="2029834463" to="2029834476" priority="4" type="highway.residential">
        <lane id="-192427755#26_0" index="0" speed="13.89" length="0.51" shape="173.48,653.01 173.98,653.00"/>
    </edge>
    <edge id="-192427755#27" from="2029834464" to="2029834463" priority="4" type="highway.residential">
        <lane id="-192427755#27_0" index="0" speed="13.89" length="0.20" shape="172.70,652.85 172.89,652.91"/>
    </edge>
    <edge id="-192427755#28" from="2029834467" to="2029834464" priority="4" type="highway.residential">
        <lane id="-192427755#28_0" index="0" speed="13.89" length="0.50" shape="171.94,652.10 172.27,652.47"/>
    </edge>
    <edge id="-192427755#3" from="2029775309" to="2029775308" priority="4" type="highway.residential">
        <lane id="-192427755#3_0" index="0" speed="13.89" length="0.20" shape="164.30,656.00 164.47,655.88"/>
    </edge>
    <edge id="-192427755#4" from="2029775305" to="2029775309" priority="4" type="highway.residential">
        <lane id="-192427755#4_0" index="0" speed="13.89" length="31.82" shape="134.18,665.19 164.56,655.72"/>
    </edge>
    <edge id="-192427755#5" from="2029775304" to="2029775305" priority="4" type="highway.residential">
        <lane id="-192427755#5_0" index="0" speed="13.89" length="78.66" shape="58.37,685.95 134.23,665.17"/>
    </edge>
    <edge id="-192427755#6" from="2029726502" to="2029775304" priority="4" type="highway.residential">
        <lane id="-192427755#6_0" index="0" speed="13.89" length="0.20" shape="56.05,693.98 55.91,693.83"/>
    </edge>
    <edge id="-192427755#7" from="2029834472" to="2029726502" priority="4" type="highway.residential" shape="111.65,694.63 107.06,693.31 97.57,691.05 97.10,690.80 96.42,690.69 95.75,690.81 67.77,698.29 66.92,698.56 66.20,699.14 65.74,699.89 65.57,700.75 65.71,701.63 66.13,702.40 58.73,694.47">
        <lane id="-192427755#7_0" index="0" speed="13.89" length="77.23" shape="109.16,695.63 106.60,694.89 96.99,692.60 96.57,692.38 96.44,692.36 96.04,692.43 68.19,699.88 67.72,700.04 67.46,700.24 67.30,700.50 67.24,700.78 67.29,701.08 74.05,713.30 60.98,699.29"/>
    </edge>
    <edge id="-192427755#8" from="2029834456" to="2029834472" priority="4" type="highway.residential">
        <lane id="-192427755#8_0" index="0" speed="13.89" length="1.53" shape="115.25,692.91 114.27,694.07"/>
    </edge>
    <edge id="-192427755#9" from="2029834454" to="2029834456" priority="4" type="highway.residential">
        <lane id="-192427755#9_0" index="0" speed="13.89" length="4.46" shape="118.67,689.74 115.39,692.76"/>
    </edge>
    <edge id="-192506862#0" from="2029726508" to="2030526258" priority="4" type="highway.residential">
        <lane id="-192506862#0_0" index="0" speed="13.89" length="1.81" shape="104.45,752.09 103.06,753.25"/>
    </edge>
    <edge id="-192506862#1" from="2030499291" to="2029726508" priority="4" type="highway.residential">
        <lane id="-192506862#1_0" index="0" speed="13.89" length="0.45" shape="107.09,752.94 106.88,752.55"/>
    </edge>
    <edge id="-192506862#10" from="2030492200" to="2030492187" priority="4" type="highway.residential">
        <lane id="-192506862#10_0" index="0" speed="13.89" length="0.22" shape="143.11,801.18 143.00,800.99"/>
    </edge>
    <edge id="-192506862#11" from="2030492196" to="2030492200" priority="4" type="highway.residential">
        <lane id="-192506862#11_0" index="0" speed="13.89" length="15.94" shape="153.51,813.59 143.26,801.38"/>
    </edge>
    <edge id="-192506862#12" from="2030492209" to="2030492196" priority="4" type="highway.residential">
        <lane id="-192506862#12_0" index="0" speed="13.89" length="0.20" shape="154.18,814.25 154.03,814.12"/>
    </edge>
    <edge id="-192506862#13" from="2030567438" to="2030492209" priority="4" type="highway.residential">
        <lane id="-192506862#13_0" index="0" speed="13.89" length="15.58" shape="164.28,826.33 154.30,814.38"/>
    </edge>
    <edge id="-192506862#14" from="2030567423" to="2030567438" priority="4" type="highway.residential">
        <lane id="-192506862#14_0" index="0" speed="13.89" length="0.59" shape="164.58,826.85 164.39,826.29"/>
    </edge>
    <edge id="-192506862#15" from="2030567463" to="2030567423" priority="4" type="highway.residential">
        <lane id="-192506862#15_0" index="0" speed="13.89" length="0.47" shape="165.19,827.73 164.88,827.37"/>
    </edge>
    <edge id="-192506862#16" from="2030567469" to="2030567463" priority="4" type="highway.residential">
        <lane id="-192506862#16_0" index="0" speed="13.89" length="7.14" shape="169.66,833.51 165.29,827.87"/>
    </edge>
    <edge id="-192506862#17" from="2030567427" to="2030567469" priority="4" type="highway.residential">
        <lane id="-192506862#17_0" index="0" speed="13.89" length="7.00" shape="174.11,838.95 169.68,833.53"/>
    </edge>
    <edge id="-192506862#18" from="2030567449" to="2030567427" priority="4" type="highway.residential">
        <lane id="-192506862#18_0" index="0" speed="13.89" length="5.05" shape="178.06,842.88 174.47,839.33"/>
    </edge>
    <edge id="-192506862#19" from="2030567443" to="2030567449" priority="4" type="highway.residential">
        <lane id="-192506862#19_0" index="0" speed="13.89" length="4.10" shape="181.62,845.78 178.43,843.21"/>
    </edge>
    <edge id="-192506862#2" from="2030499287" to="2030499291" priority="4" type="highway.residential">
        <lane id="-192506862#2_0" index="0" speed="13.89" length="4.29" shape="109.17,756.70 107.10,752.94"/>
    </edge>
    <edge id="-192506862#20" from="2030567435" to="2030567443" priority="4" type="highway.residential">
        <lane id="-192506862#20_0" index="0" speed="13.89" length="4.48" shape="185.63,848.54 181.93,846.01"/>
    </edge>
    <edge id="-192506862#21" from="2030567461" to="2030567435" priority="4" type="highway.residential">
        <lane id="-192506862#21_0" index="0" speed="13.89" length="6.56" shape="192.11,851.80 186.23,848.89"/>
    </edge>
    <edge id="-192506862#22" from="2030567420" to="2030567461" priority="4" type="highway.residential">
        <lane id="-192506862#22_0" index="0" speed="13.89" length="32.82" shape="221.98,865.42 192.11,851.80"/>
    </edge>
    <edge id="-192506862#23" from="2030585759" to="2030567420" priority="4" type="highway.residential">
        <lane id="-192506862#23_0" index="0" speed="13.89" length="1.63" shape="223.24,865.59 224.18,864.26"/>
    </edge>
    <edge id="-192506862#24" from="2030585751" to="2030585759" priority="4" type="highway.residential">
        <lane id="-192506862#24_0" index="0" speed="13.89" length="0.32" shape="222.70,866.52 222.85,866.23"/>
    </edge>
    <edge id="-192506862#25" from="2030585743" to="2030585751" priority="4" type="highway.residential">
        <lane id="-192506862#25_0" index="0" speed="13.89" length="1.09" shape="220.76,869.98 221.32,869.05"/>
    </edge>
    <edge id="-192506862#26" from="2030585756" to="2030585743" priority="4" type="highway.residential">
        <lane id="-192506862#26_0" index="0" speed="13.89" length="0.20" shape="220.79,869.93 220.90,869.76"/>
    </edge>
    <edge id="-192506862#27" from="2030585746" to="2030585756" priority="4" type="highway.residential">
        <lane id="-192506862#27_0" index="0" speed="13.89" length="2.56" shape="214.39,869.90 216.74,870.91"/>
    </edge>
    <edge id="-192506862#28" from="2030585757" to="2030585746" priority="4" type="highway.residential">
        <lane id="-192506862#28_0" index="0" speed="13.89" length="0.70" shape="213.38,869.03 213.86,869.53"/>
    </edge>
    <edge id="-192506862#29" from="2030585764" to="2030585757" priority="4" type="highway.residential">
        <lane id="-192506862#29_0" index="0" speed="13.89" length="1.66" shape="211.73,867.60 213.00,868.67"/>
    </edge>
    <edge id="-192506862#3" from="2030499289" to="2030499287" priority="4" type="highway.residential">
        <lane id="-192506862#3_0" index="0" speed="13.89" length="4.45" shape="111.55,760.56 109.21,756.77"/>
    </edge>
    <edge id="-192506862#30" from="2030585752" to="2030585764" priority="4" type="highway.residential">
        <lane id="-192506862#30_0" index="0" speed="13.89" length="2.71" shape="208.61,865.74 210.97,867.07"/>
    </edge>
    <edge id="-192506862#31" from="2030585753" to="2030585752" priority="4" type="highway.residential">
        <lane id="-192506862#31_0" index="0" speed="13.89" length="17.86" shape="192.11,857.99 208.28,865.57"/>
    </edge>
    <edge id="-192506862#32" from="2030585755" to="2030585753" priority="4" type="highway.residential">
        <lane id="-192506862#32_0" index="0" speed="13.89" length="1.23" shape="190.62,857.41 191.77,857.85"/>
    </edge>
    <edge id="-192506862#33+244867853#12" from="2030585758" to="2030585755" priority="4">
        <lane id="-192506862#33+244867853#12_0" index="0" speed="13.89" length="1.84" shape="187.37,851.93 188.44,852.57"/>
        <lane id="-192506862#33+244867853#12_1" index="1" speed="13.89" length="1.84" shape="185.49,854.65 187.57,855.90"/>
    </edge>
    <edge id="-192506862#34+244867853#11" from="2030585760" to="2030585758" priority="4">
        <lane id="-192506862#34+244867853#11_0" index="0" speed="13.89" length="3.83" shape="184.04,849.77 187.17,851.80"/>
        <lane id="-192506862#34+244867853#11_1" index="1" speed="13.89" length="3.83" shape="182.25,852.54 185.54,854.68"/>
    </edge>
    <edge id="-192506862#35+244867853#10" from="2030585748" to="2030585760" priority="4">
        <lane id="-192506862#35+244867853#10_0" index="0" speed="13.89" length="3.85" shape="180.89,847.37 183.95,849.70"/>
        <lane id="-192506862#35+244867853#10_1" index="1" speed="13.89" length="3.85" shape="178.89,850.00 181.95,852.33"/>
    </edge>
    <edge id="-192506862#36+244867853#9" from="2030585747" to="2030585748" priority="4">
        <lane id="-192506862#36+244867853#9_0" index="0" speed="13.89" length="2.91" shape="178.64,845.62 180.94,847.41"/>
        <lane id="-192506862#36+244867853#9_1" index="1" speed="13.89" length="2.91" shape="176.61,848.22 178.90,850.01"/>
    </edge>
    <edge id="-192506862#37+244867853#8" from="2030585750" to="2030585747" priority="4">
        <lane id="-192506862#37+244867853#8_0" index="0" speed="13.89" length="3.31" shape="176.15,843.39 178.56,845.55"/>
        <lane id="-192506862#37+244867853#8_1" index="1" speed="13.89" length="3.31" shape="173.84,845.75 176.36,848.01"/>
    </edge>
    <edge id="-192506862#38+244867853#7" from="2030585754" to="2030585750" priority="4">
        <lane id="-192506862#38+244867853#7_0" index="0" speed="13.89" length="4.73" shape="172.59,839.91 175.92,843.17"/>
        <lane id="-192506862#38+244867853#7_1" index="1" speed="13.89" length="4.73" shape="170.28,842.27 173.71,845.63"/>
    </edge>
    <edge id="-192506862#39+244867853#6" from="2030585761" to="2030585754" priority="4">
        <lane id="-192506862#39+244867853#6_0" index="0" speed="13.89" length="3.56" shape="170.18,837.12 172.50,839.81"/>
        <lane id="-192506862#39+244867853#6_1" index="1" speed="13.89" length="3.56" shape="167.68,839.27 170.00,841.97"/>
    </edge>
    <edge id="-192506862#4" from="2030499284" to="2030499289" priority="4" type="highway.residential">
        <lane id="-192506862#4_0" index="0" speed="13.89" length="4.52" shape="114.40,764.51 111.75,760.85"/>
    </edge>
    <edge id="-192506862#40+244867853#5" from="2030585745" to="2030585761" priority="4">
        <lane id="-192506862#40+244867853#5_0" index="0" speed="13.89" length="7.03" shape="165.61,831.83 170.18,837.12"/>
        <lane id="-192506862#40+244867853#5_1" index="1" speed="13.89" length="7.03" shape="163.05,833.91 167.68,839.27"/>
    </edge>
    <edge id="-192506862#41+244867853#4" from="2030585744" to="2030585745" priority="4">
        <lane id="-192506862#41+244867853#4_0" index="0" speed="13.89" length="8.28" shape="160.32,825.47 165.54,831.75"/>
        <lane id="-192506862#41+244867853#4_1" index="1" speed="13.89" length="8.28" shape="157.70,827.48 163.07,833.94"/>
    </edge>
    <edge id="-192506862#42+244867853#3" from="2030585763" to="2030585744" priority="4">
        <lane id="-192506862#42+244867853#3_0" index="0" speed="13.89" length="9.71" shape="154.25,817.79 160.23,825.35"/>
        <lane id="-192506862#42+244867853#3_1" index="1" speed="13.89" length="9.71" shape="151.66,819.84 157.72,827.51"/>
    </edge>
    <edge id="-192506862#43+244867853#2" from="2030585749" to="2030585763" priority="4">
        <lane id="-192506862#43+244867853#2_0" index="0" speed="13.89" length="26.23" shape="137.83,797.43 154.25,817.79"/>
        <lane id="-192506862#43+244867853#2_1" index="1" speed="13.89" length="26.23" shape="135.15,799.36 151.66,819.83"/>
    </edge>
    <edge id="-192506862#44+244867853#1" from="2030151598" to="2030585749" priority="4">
        <lane id="-192506862#44+244867853#1_0" index="0" speed="13.89" length="10.93" shape="131.17,788.64 137.70,797.27"/>
        <lane id="-192506862#44+244867853#1_1" index="1" speed="13.89" length="10.93" shape="128.52,790.61 135.18,799.40"/>
    </edge>
    <edge id="-192506862#45" from="2030526254" to="2030151598" priority="4" type="highway.residential" shape="99.17,754.41 97.44,755.95 125.08,788.95 126.65,790.87">
        <lane id="-192506862#45_0" index="0" speed="13.89" length="44.96" shape="100.27,755.64 99.73,756.12 126.34,787.89 128.11,790.05"/>
    </edge>
    <edge id="-192506862#46" from="899015848" to="2030526254" priority="4" type="highway.residential">
        <lane id="-192506862#46_0" index="0" speed="13.89" length="0.31" shape="100.49,755.44 100.26,755.65"/>
    </edge>
    <edge id="-192506862#47" from="2030526258" to="899015848" priority="4" type="highway.residential">
        <lane id="-192506862#47_0" index="0" speed="13.89" length="0.51" shape="103.06,753.25 102.67,753.57"/>
    </edge>