<flows>
    <!--<flow id="a" from="7" to="1" begin="10" end="360" number="40"/>
    <flow id="b" from="5" to="3" begin="10" end="360" number="40"/>
    <flow id="aa" from="7" to="1" begin="100" end="280" number="20"/>
    <flow id="bb" from="5" to="3" begin="100" end="280" number="20"/>
    <flow id="c" from="7" to="4" begin="6" end="360" number="15"/>
    <flow id="d" from="5" to="4" begin="11" end="360" number="15"/>
    <flow id="cc" from="7" to="4" begin="96" end="276" number="7"/>
    <flow id="dd" from="5" to="4" begin="101" end="281" number="8"/>
    <flow id="e" from="0" to="1" begin="3" end="360" number="25"/>
    <flow id="f" from="0" to="3" begin="9" end="360" number="25"/>
    <flow id="ee" from="0" to="1" begin="93" end="273" number="13"/>
    <flow id="ff" from="0" to="3" begin="99" end="279" number="12"/>-->

  <!--  <flow id="a" from="7" to="1" begin="10" end="180" number="50"/>
    <flow id="b" from="5" to="3" begin="10" end="180" number="50"/>

    <flow id="c" from="5" to="4" begin="10" end="180" number="2"/>
    <flow id="d" from="7" to="4" begin="15" end="180" number="2"/>

    <flow id="e" from="0" to="1" begin="5" end="180" number="6"/>
    <flow id="f" from="0" to="3" begin="10" end="180" number="6"/> -->

    <flow id="a" from="7" to="1" begin="10" end="180" number="160"/>
    <flow id="b" from="0" to="1" begin="10" end="180" number="160"/>

</flows>

