<?xml version="1.0" encoding="UTF-8"?>

<!-- generated on Tue Sep 15 17:40:29 2015 by SUMO duarouter Version 0.24.0
<?xml version="1.0" encoding="UTF-8"?>

<configuration xmlns:xsi="http://www.w3.org/2001/XMLSchema-instance" xsi:noNamespaceSchemaLocation="http://sumo.dlr.de/xsd/duarouterConfiguration.xsd">

    <input>
        <net-file value="artificialHighway-funnel/artificialHighway-funnel.net.xml"/>
        <flow-files value="artificialHighway-funnel/artificialHighway-funnel.flows.xml"/>
    </input>

    <output>
        <output-file value="artificialHighway-funnel/artificialHighway-funnel.rou.xml"/>
    </output>

    <processing>
        <ignore-errors value="true"/>
        <routing-algorithm value="astar"/>
    </processing>

    <report>
        <no-warnings value="true"/>
    </report>

</configuration>
-->

<routes xmlns:xsi="http://www.w3.org/2001/XMLSchema-instance" xsi:noNamespaceSchemaLocation="http://sumo.dlr.de/xsd/routes_file.xsd">
    <vehicle id="1" depart="5.00">
        <route edges="2 3"/>
    </vehicle>
    <vehicle id="2" depart="6.09">
        <route edges="2 3"/>
    </vehicle>
    <vehicle id="3" depart="7.19">
        <route edges="2 3"/>
    </vehicle>
    <vehicle id="4" depart="8.28">
        <route edges="2 3"/>
    </vehicle>
    <vehicle id="5" depart="9.37">
        <route edges="2 3"/>
    </vehicle>
    <vehicle id="6" depart="10.46">
        <route edges="2 3"/>
    </vehicle>
    <vehicle id="7" depart="11.56">
        <route edges="2 3"/>
    </vehicle>
    <vehicle id="8" depart="12.65">
        <route edges="2 3"/>
    </vehicle>
    <vehicle id="9" depart="13.74">
        <route edges="2 3"/>
    </vehicle>
    <vehicle id="10" depart="14.84">
        <route edges="2 3"/>
    </vehicle>
    <vehicle id="11" depart="15.93">
        <route edges="2 3"/>
    </vehicle>
    <vehicle id="12" depart="17.02">
        <route edges="2 3"/>
    </vehicle>
    <vehicle id="13" depart="18.12">
        <route edges="2 3"/>
    </vehicle>
    <vehicle id="14" depart="19.21">
        <route edges="2 3"/>
    </vehicle>
    <vehicle id="15" depart="20.30">
        <route edges="2 3"/>
    </vehicle>
    <vehicle id="16" depart="21.39">
        <route edges="2 3"/>
    </vehicle>
    <vehicle id="17" depart="22.49">
        <route edges="2 3"/>
    </vehicle>
    <vehicle id="18" depart="23.58">
        <route edges="2 3"/>
    </vehicle>
    <vehicle id="19" depart="24.67">
        <route edges="2 3"/>
    </vehicle>
    <vehicle id="20" depart="25.77">
        <route edges="2 3"/>
    </vehicle>
    <vehicle id="21" depart="26.86">
        <route edges="2 3"/>
    </vehicle>
    <vehicle id="22" depart="27.95">
        <route edges="2 3"/>
    </vehicle>
    <vehicle id="23" depart="29.05">
        <route edges="2 3"/>
    </vehicle>
    <vehicle id="24" depart="30.14">
        <route edges="2 3"/>
    </vehicle>
    <vehicle id="25" depart="31.23">
        <route edges="2 3"/>
    </vehicle>
    <vehicle id="26" depart="32.33">
        <route edges="2 3"/>
    </vehicle>
    <vehicle id="27" depart="33.42">
        <route edges="2 3"/>
    </vehicle>
    <vehicle id="28" depart="34.51">
        <route edges="2 3"/>
    </vehicle>
    <vehicle id="29" depart="35.60">
        <route edges="2 3"/>
    </vehicle>
    <vehicle id="30" depart="36.70">
        <route edges="2 3"/>
    </vehicle>
    <vehicle id="31" depart="37.79">
        <route edges="2 3"/>
    </vehicle>
    <vehicle id="32" depart="38.88">
        <route edges="2 3"/>
    </vehicle>
    <vehicle id="33" depart="39.98">
        <route edges="2 3"/>
    </vehicle>
    <vehicle id="34" depart="41.07">
        <route edges="2 3"/>
    </vehicle>
    <vehicle id="35" depart="42.16">
        <route edges="2 3"/>
    </vehicle>
    <vehicle id="36" depart="43.26">
        <route edges="2 3"/>
    </vehicle>
    <vehicle id="37" depart="44.35">
        <route edges="2 3"/>
    </vehicle>
    <vehicle id="38" depart="45.44">
        <route edges="2 3"/>
    </vehicle>
    <vehicle id="39" depart="46.53">
        <route edges="2 3"/>
    </vehicle>
    <vehicle id="40" depart="47.63">
        <route edges="2 3"/>
    </vehicle>
    <vehicle id="41" depart="48.72">
        <route edges="2 3"/>
    </vehicle>
    <vehicle id="42" depart="49.81">
        <route edges="2 3"/>
    </vehicle>
    <vehicle id="43" depart="50.91">
        <route edges="2 3"/>
    </vehicle>
    <vehicle id="44" depart="52.00">
        <route edges="2 3"/>
    </vehicle>
    <vehicle id="45" depart="53.09">
        <route edges="2 3"/>
    </vehicle>
    <vehicle id="46" depart="54.19">
        <route edges="2 3"/>
    </vehicle>
    <vehicle id="47" depart="55.28">
        <route edges="2 3"/>
    </vehicle>
    <vehicle id="48" depart="56.37">
        <route edges="2 3"/>
    </vehicle>
    <vehicle id="49" depart="57.46">
        <route edges="2 3"/>
    </vehicle>
    <vehicle id="50" depart="58.56">
        <route edges="2 3"/>
    </vehicle>
    <vehicle id="51" depart="59.65">
        <route edges="2 3"/>
    </vehicle>
    <vehicle id="52" depart="60.74">
        <route edges="2 3"/>
    </vehicle>
    <vehicle id="53" depart="61.84">
        <route edges="2 3"/>
    </vehicle>
    <vehicle id="54" depart="62.93">
        <route edges="2 3"/>
    </vehicle>
    <vehicle id="55" depart="64.02">
        <route edges="2 3"/>
    </vehicle>
    <vehicle id="56" depart="65.11">
        <route edges="2 3"/>
    </vehicle>
    <vehicle id="57" depart="66.21">
        <route edges="2 3"/>
    </vehicle>
    <vehicle id="58" depart="67.30">
        <route edges="2 3"/>
    </vehicle>
    <vehicle id="59" depart="68.39">
        <route edges="2 3"/>
    </vehicle>
    <vehicle id="60" depart="69.49">
        <route edges="2 3"/>
    </vehicle>
    <vehicle id="61" depart="70.58">
        <route edges="2 3"/>
    </vehicle>
    <vehicle id="62" depart="71.67">
        <route edges="2 3"/>
    </vehicle>
    <vehicle id="63" depart="72.77">
        <route edges="2 3"/>
    </vehicle>
    <vehicle id="64" depart="73.86">
        <route edges="2 3"/>
    </vehicle>
    <vehicle id="65" depart="74.95">
        <route edges="2 3"/>
    </vehicle>
    <vehicle id="66" depart="76.05">
        <route edges="2 3"/>
    </vehicle>
    <vehicle id="67" depart="77.14">
        <route edges="2 3"/>
    </vehicle>
    <vehicle id="68" depart="78.23">
        <route edges="2 3"/>
    </vehicle>
    <vehicle id="69" depart="79.32">
        <route edges="2 3"/>
    </vehicle>
    <vehicle id="70" depart="80.42">
        <route edges="2 3"/>
    </vehicle>
    <vehicle id="71" depart="81.51">
        <route edges="2 3"/>
    </vehicle>
    <vehicle id="72" depart="82.60">
        <route edges="2 3"/>
    </vehicle>
    <vehicle id="73" depart="83.70">
        <route edges="2 3"/>
    </vehicle>
    <vehicle id="74" depart="84.79">
        <route edges="2 3"/>
    </vehicle>
    <vehicle id="75" depart="85.88">
        <route edges="2 3"/>
    </vehicle>
    <vehicle id="76" depart="86.97">
        <route edges="2 3"/>
    </vehicle>
    <vehicle id="77" depart="88.07">
        <route edges="2 3"/>
    </vehicle>
    <vehicle id="78" depart="89.16">
        <route edges="2 3"/>
    </vehicle>
    <vehicle id="79" depart="90.25">
        <route edges="2 3"/>
    </vehicle>
    <vehicle id="80" depart="91.35">
        <route edges="2 3"/>
    </vehicle>
    <vehicle id="81" depart="92.44">
        <route edges="2 3"/>
    </vehicle>
    <vehicle id="82" depart="93.53">
        <route edges="2 3"/>
    </vehicle>
    <vehicle id="83" depart="94.63">
        <route edges="2 3"/>
    </vehicle>
    <vehicle id="84" depart="95.72">
        <route edges="2 3"/>
    </vehicle>
    <vehicle id="85" depart="96.81">
        <route edges="2 3"/>
    </vehicle>
    <vehicle id="86" depart="97.91">
        <route edges="2 3"/>
    </vehicle>
    <vehicle id="87" depart="99.00">
        <route edges="2 3"/>
    </vehicle>
    <vehicle id="88" depart="100.09">
        <route edges="2 3"/>
    </vehicle>
    <vehicle id="89" depart="101.18">
        <route edges="2 3"/>
    </vehicle>
    <vehicle id="90" depart="102.28">
        <route edges="2 3"/>
    </vehicle>
    <vehicle id="91" depart="103.37">
        <route edges="2 3"/>
    </vehicle>
    <vehicle id="92" depart="104.46">
        <route edges="2 3"/>
    </vehicle>
    <vehicle id="93" depart="105.56">
        <route edges="2 3"/>
    </vehicle>
    <vehicle id="94" depart="106.65">
        <route edges="2 3"/>
    </vehicle>
    <vehicle id="95" depart="107.74">
        <route edges="2 3"/>
    </vehicle>
    <vehicle id="96" depart="108.83">
        <route edges="2 3"/>
    </vehicle>
    <vehicle id="97" depart="109.93">
        <route edges="2 3"/>
    </vehicle>
    <vehicle id="98" depart="111.02">
        <route edges="2 3"/>
    </vehicle>
    <vehicle id="99" depart="112.11">
        <route edges="2 3"/>
    </vehicle>
    <vehicle id="100" depart="113.21">
        <route edges="2 3"/>
    </vehicle>
    <vehicle id="101" depart="114.30">
        <route edges="2 3"/>
    </vehicle>
    <vehicle id="102" depart="115.39">
        <route edges="2 3"/>
    </vehicle>
    <vehicle id="103" depart="116.49">
        <route edges="2 3"/>
    </vehicle>
    <vehicle id="104" depart="117.58">
        <route edges="2 3"/>
    </vehicle>
    <vehicle id="105" depart="118.67">
        <route edges="2 3"/>
    </vehicle>
    <vehicle id="106" depart="119.77">
        <route edges="2 3"/>
    </vehicle>
    <vehicle id="107" depart="120.86">
        <route edges="2 3"/>
    </vehicle>
    <vehicle id="108" depart="121.95">
        <route edges="2 3"/>
    </vehicle>
    <vehicle id="109" depart="123.04">
        <route edges="2 3"/>
    </vehicle>
    <vehicle id="110" depart="124.14">
        <route edges="2 3"/>
    </vehicle>
    <vehicle id="111" depart="125.23">
        <route edges="2 3"/>
    </vehicle>
    <vehicle id="112" depart="126.32">
        <route edges="2 3"/>
    </vehicle>
    <vehicle id="113" depart="127.42">
        <route edges="2 3"/>
    </vehicle>
    <vehicle id="114" depart="128.51">
        <route edges="2 3"/>
    </vehicle>
    <vehicle id="115" depart="129.60">
        <route edges="2 3"/>
    </vehicle>
    <vehicle id="116" depart="130.69">
        <route edges="2 3"/>
    </vehicle>
    <vehicle id="117" depart="131.79">
        <route edges="2 3"/>
    </vehicle>
    <vehicle id="118" depart="132.88">
        <route edges="2 3"/>
    </vehicle>
    <vehicle id="119" depart="133.97">
        <route edges="2 3"/>
    </vehicle>
    <vehicle id="120" depart="135.07">
        <route edges="2 3"/>
    </vehicle>
    <vehicle id="121" depart="136.16">
        <route edges="2 3"/>
    </vehicle>
    <vehicle id="122" depart="137.25">
        <route edges="2 3"/>
    </vehicle>
    <vehicle id="123" depart="138.35">
        <route edges="2 3"/>
    </vehicle>
    <vehicle id="124" depart="139.44">
        <route edges="2 3"/>
    </vehicle>
    <vehicle id="125" depart="140.53">
        <route edges="2 3"/>
    </vehicle>
    <vehicle id="126" depart="141.62">
        <route edges="2 3"/>
    </vehicle>
    <vehicle id="127" depart="142.72">
        <route edges="2 3"/>
    </vehicle>
    <vehicle id="128" depart="143.81">
        <route edges="2 3"/>
    </vehicle>
    <vehicle id="129" depart="144.90">
        <route edges="2 3"/>
    </vehicle>
    <vehicle id="130" depart="146.00">
        <route edges="2 3"/>
    </vehicle>
    <vehicle id="131" depart="147.09">
        <route edges="2 3"/>
    </vehicle>
    <vehicle id="132" depart="148.18">
        <route edges="2 3"/>
    </vehicle>
    <vehicle id="133" depart="149.28">
        <route edges="2 3"/>
    </vehicle>
    <vehicle id="134" depart="150.37">
        <route edges="2 3"/>
    </vehicle>
    <vehicle id="135" depart="151.46">
        <route edges="2 3"/>
    </vehicle>
    <vehicle id="136" depart="152.56">
        <route edges="2 3"/>
    </vehicle>
    <vehicle id="137" depart="153.65">
        <route edges="2 3"/>
    </vehicle>
    <vehicle id="138" depart="154.74">
        <route edges="2 3"/>
    </vehicle>
    <vehicle id="139" depart="155.83">
        <route edges="2 3"/>
    </vehicle>
    <vehicle id="140" depart="156.93">
        <route edges="2 3"/>
    </vehicle>
    <vehicle id="141" depart="158.02">
        <route edges="2 3"/>
    </vehicle>
    <vehicle id="142" depart="159.11">
        <route edges="2 3"/>
    </vehicle>
    <vehicle id="143" depart="160.21">
        <route edges="2 3"/>
    </vehicle>
    <vehicle id="144" depart="161.30">
        <route edges="2 3"/>
    </vehicle>
    <vehicle id="145" depart="162.39">
        <route edges="2 3"/>
    </vehicle>
    <vehicle id="146" depart="163.49">
        <route edges="2 3"/>
    </vehicle>
    <vehicle id="147" depart="164.58">
        <route edges="2 3"/>
    </vehicle>
    <vehicle id="148" depart="165.67">
        <route edges="2 3"/>
    </vehicle>
    <vehicle id="149" depart="166.76">
        <route edges="2 3"/>
    </vehicle>
    <vehicle id="150" depart="167.86">
        <route edges="2 3"/>
    </vehicle>
    <vehicle id="151" depart="168.95">
        <route edges="2 3"/>
    </vehicle>
    <vehicle id="152" depart="170.04">
        <route edges="2 3"/>
    </vehicle>
    <vehicle id="153" depart="171.14">
        <route edges="2 3"/>
    </vehicle>
    <vehicle id="154" depart="172.23">
        <route edges="2 3"/>
    </vehicle>
    <vehicle id="155" depart="173.32">
        <route edges="2 3"/>
    </vehicle>
    <vehicle id="156" depart="174.41">
        <route edges="2 3"/>
    </vehicle>
    <vehicle id="157" depart="175.51">
        <route edges="2 3"/>
    </vehicle>
    <vehicle id="158" depart="176.60">
        <route edges="2 3"/>
    </vehicle>
    <vehicle id="159" depart="177.69">
        <route edges="2 3"/>
    </vehicle>
    <vehicle id="160" depart="178.79">
        <route edges="2 3"/>
    </vehicle>
</routes>
