<?xml version="1.0"?>
<!-- generated on 2014-09-08 11:41:13.141971 by $Id: randomTrips.py 13811 2013-05-01 20:31:43Z behrisch $ -->
<trips>
    <trip id="0" depart="0.00" from="-55995840#4" to="4431875" />
    <trip id="1" depart="1.00" from="-219639731#1" to="249883408#0" />
    <trip id="2" depart="2.00" from="4228470#0" to="-176192997#0" />
    <trip id="3" depart="3.00" from="-27763764#1" to="249883408#0" />
    <trip id="4" depart="4.00" from="67521774#1" to="192506862#45" />
    <trip id="5" depart="5.00" from="205991584#0" to="216071217#2" />
    <trip id="6" depart="6.00" from="-55995840#4" to="-23399921#2" />
    <trip id="7" depart="7.00" from="-210696276#1" to="-138301151#0" />
    <trip id="8" depart="8.00" from="219639731#2" to="219639731#1" />
    <trip id="9" depart="9.00" from="192506862#25" to="175926246#0" />
    <trip id="10" depart="10.00" from="-12497441#2" to="-9824079#1" />
    <trip id="11" depart="11.00" from="23399921#2" to="53725575#1" />
    <trip id="12" depart="12.00" from="250508599#0" to="-55995840#1" />
    <trip id="13" depart="13.00" from="4228470#0" to="25627119#2" />
    <trip id="14" depart="14.00" from="10754060#4" to="3752474#1" />
    <trip id="15" depart="15.00" from="4496260#1" to="247177361#1" />
    <trip id="16" depart="16.00" from="3752474#1" to="83811439" />
    <trip id="17" depart="17.00" from="33071864" to="-192506862#16" />
    <trip id="18" depart="18.00" from="4214231" to="4621438#1" />
    <trip id="19" depart="19.00" from="264069655#0" to="-209764380#22" />
    <trip id="20" depart="20.00" from="-192427755#25" to="220076736#0" />
    <trip id="21" depart="21.00" from="-27763764#1" to="255598297#3" />
    <trip id="22" depart="22.00" from="24633796#2" to="4228470#1" />
    <trip id="23" depart="23.00" from="192506862#45" to="244867853#21" />
    <trip id="24" depart="24.00" from="-23399921#2" to="216243181#0" />
    <trip id="25" depart="25.00" from="-212676025#0" to="-212676025#0" />
    <trip id="26" depart="26.00" from="192397909#12" to="3752474#1" />
    <trip id="27" depart="27.00" from="61320006#0" to="-33071864" />
    <trip id="28" depart="28.00" from="264069655#0" to="193210498#1" />
    <trip id="29" depart="29.00" from="216071215#1" to="27690698#4" />
    <trip id="30" depart="30.00" from="27690700#1" to="-83811439" />
    <trip id="31" depart="31.00" from="-28427479" to="-175926248#1" />
    <trip id="32" depart="32.00" from="264069654#0" to="-4228470#0" />
    <trip id="33" depart="33.00" from="-163468488#1" to="157916450#3" />
    <trip id="34" depart="34.00" from="61320004" to="50414603#2" />
    <trip id="35" depart="35.00" from="249883408#0" to="-4228470#0" />
    <trip id="36" depart="36.00" from="-65597418#5" to="244867853#0" />
    <trip id="37" depart="37.00" from="-192427755#10" to="-255598297#2" />
    <trip id="38" depart="38.00" from="24543521#4" to="-55995840#0" />
    <trip id="39" depart="39.00" from="-209764380#22" to="-247177361#3" />
    <trip id="40" depart="40.00" from="-27763764#0" to="219639731#0" />
    <trip id="41" depart="41.00" from="28427479" to="-210696276#1" />
    <trip id="42" depart="42.00" from="-67521774#1" to="65597418#0" />
    <trip id="43" depart="43.00" from="27690698#4" to="192397909#12" />
    <trip id="44" depart="44.00" from="255598297#3" to="12497441#0" />
    <trip id="45" depart="45.00" from="23058277#3" to="-4621438#0" />
    <trip id="46" depart="46.00" from="192506862#21" to="-4228470#0" />
    <trip id="47" depart="47.00" from="4228470#0" to="24633796#2" />
    <trip id="48" depart="48.00" from="244867853#33" to="-176192997#0" />
    <trip id="49" depart="49.00" from="192397909#3" to="33071864" />
</trips>