<?xml version="1.0" encoding="UTF-8"?>

<!-- generated on Thu Apr 30 10:14:10 2015 by SUMO duarouter Version 0.21.0
<?xml version="1.0" encoding="UTF-8"?>

<configuration xmlns:xsi="http://www.w3.org/2001/XMLSchema-instance" xsi:noNamespaceSchemaLocation="http://sumo-sim.org/xsd/duarouterConfiguration.xsd">

    <input>
        <net-file value="X-junction.net.xml"/>
        <flow-files value="X-junction.flows.xml"/>
    </input>

    <output>
        <output-file value="X-junction.rou.xml"/>
    </output>

    <processing>
        <ignore-errors value="true"/>
        <routing-algorithm value="astar"/>
    </processing>

    <report>
        <no-warnings value="true"/>
    </report>

</configuration>
-->

<routes xmlns:xsi="http://www.w3.org/2001/XMLSchema-instance" xsi:noNamespaceSchemaLocation="http://sumo-sim.org/xsd/routes_file.xsd">
    <vehicle id="1" depart="0.00">
        <route edges="0 2"/>
    </vehicle>
    <vehicle id="2" depart="10.00">
        <route edges="5 3"/>
    </vehicle>
    <vehicle id="3" depart="10.00">
        <route edges="6 3"/>
    </vehicle>
    <vehicle id="4" depart="10.00">
        <route edges="7 4"/>
    </vehicle>
    <vehicle id="5" depart="10.00">
        <route edges="6 4"/>
    </vehicle>
    <vehicle id="6" depart="10.00">
        <route edges="7 1"/>
    </vehicle>
    <vehicle id="7" depart="10.00">
        <route edges="0 3"/>
    </vehicle>
    <vehicle id="8" depart="10.00">
        <route edges="5 4"/>
    </vehicle>
    <vehicle id="9" depart="10.00">
        <route edges="6 1"/>
    </vehicle>
    <vehicle id="10" depart="10.00">
        <route edges="7 2"/>
    </vehicle>
    <vehicle id="11" depart="10.00">
        <route edges="0 1"/>
    </vehicle>
    <vehicle id="12" depart="10.00">
        <route edges="5 2"/>
    </vehicle>
    <vehicle id="13" depart="17.00">
        <route edges="0 2"/>
    </vehicle>
    <vehicle id="14" depart="17.00">
        <route edges="5 3"/>
    </vehicle>
    <vehicle id="15" depart="17.00">
        <route edges="6 4"/>
    </vehicle>
    <vehicle id="16" depart="17.00">
        <route edges="7 1"/>
    </vehicle>
    <vehicle id="17" depart="24.00">
        <route edges="0 2"/>
    </vehicle>
    <vehicle id="18" depart="24.00">
        <route edges="5 3"/>
    </vehicle>
    <vehicle id="19" depart="24.00">
        <route edges="6 3"/>
    </vehicle>
    <vehicle id="20" depart="24.00">
        <route edges="7 4"/>
    </vehicle>
    <vehicle id="21" depart="24.00">
        <route edges="6 4"/>
    </vehicle>
    <vehicle id="22" depart="24.00">
        <route edges="7 1"/>
    </vehicle>
    <vehicle id="23" depart="24.00">
        <route edges="0 3"/>
    </vehicle>
    <vehicle id="24" depart="24.00">
        <route edges="5 4"/>
    </vehicle>
    <vehicle id="25" depart="24.00">
        <route edges="6 1"/>
    </vehicle>
    <vehicle id="26" depart="24.00">
        <route edges="7 2"/>
    </vehicle>
    <vehicle id="27" depart="24.00">
        <route edges="0 1"/>
    </vehicle>
    <vehicle id="28" depart="24.00">
        <route edges="5 2"/>
    </vehicle>
    <vehicle id="29" depart="31.00">
        <route edges="0 2"/>
    </vehicle>
    <vehicle id="30" depart="31.00">
        <route edges="5 3"/>
    </vehicle>
    <vehicle id="31" depart="31.00">
        <route edges="6 4"/>
    </vehicle>
    <vehicle id="32" depart="31.00">
        <route edges="7 1"/>
    </vehicle>
    <vehicle id="33" depart="38.00">
        <route edges="0 2"/>
    </vehicle>
    <vehicle id="34" depart="38.00">
        <route edges="5 3"/>
    </vehicle>
    <vehicle id="35" depart="38.00">
        <route edges="6 3"/>
    </vehicle>
    <vehicle id="36" depart="38.00">
        <route edges="7 4"/>
    </vehicle>
    <vehicle id="37" depart="38.00">
        <route edges="6 4"/>
    </vehicle>
    <vehicle id="38" depart="38.00">
        <route edges="7 1"/>
    </vehicle>
    <vehicle id="39" depart="38.00">
        <route edges="0 3"/>
    </vehicle>
    <vehicle id="40" depart="38.00">
        <route edges="5 4"/>
    </vehicle>
    <vehicle id="41" depart="38.00">
        <route edges="6 1"/>
    </vehicle>
    <vehicle id="42" depart="38.00">
        <route edges="7 2"/>
    </vehicle>
    <vehicle id="43" depart="38.00">
        <route edges="0 1"/>
    </vehicle>
    <vehicle id="44" depart="38.00">
        <route edges="5 2"/>
    </vehicle>
    <vehicle id="45" depart="45.00">
        <route edges="0 2"/>
    </vehicle>
    <vehicle id="46" depart="45.00">
        <route edges="5 3"/>
    </vehicle>
    <vehicle id="47" depart="45.00">
        <route edges="6 4"/>
    </vehicle>
    <vehicle id="48" depart="45.00">
        <route edges="7 1"/>
    </vehicle>
    <vehicle id="49" depart="52.00">
        <route edges="0 2"/>
    </vehicle>
    <vehicle id="50" depart="52.00">
        <route edges="5 3"/>
    </vehicle>
    <vehicle id="51" depart="52.00">
        <route edges="6 3"/>
    </vehicle>
    <vehicle id="52" depart="52.00">
        <route edges="7 4"/>
    </vehicle>
    <vehicle id="53" depart="52.00">
        <route edges="6 4"/>
    </vehicle>
    <vehicle id="54" depart="52.00">
        <route edges="7 1"/>
    </vehicle>
    <vehicle id="55" depart="52.00">
        <route edges="0 3"/>
    </vehicle>
    <vehicle id="56" depart="52.00">
        <route edges="5 4"/>
    </vehicle>
    <vehicle id="57" depart="52.00">
        <route edges="6 1"/>
    </vehicle>
    <vehicle id="58" depart="52.00">
        <route edges="7 2"/>
    </vehicle>
    <vehicle id="59" depart="52.00">
        <route edges="0 1"/>
    </vehicle>
    <vehicle id="60" depart="52.00">
        <route edges="5 2"/>
    </vehicle>
    <vehicle id="61" depart="59.00">
        <route edges="0 2"/>
    </vehicle>
    <vehicle id="62" depart="59.00">
        <route edges="5 3"/>
    </vehicle>
    <vehicle id="63" depart="59.00">
        <route edges="6 4"/>
    </vehicle>
    <vehicle id="64" depart="59.00">
        <route edges="7 1"/>
    </vehicle>
    <vehicle id="65" depart="66.00">
        <route edges="0 2"/>
    </vehicle>
    <vehicle id="66" depart="66.00">
        <route edges="5 3"/>
    </vehicle>
    <vehicle id="67" depart="66.00">
        <route edges="6 3"/>
    </vehicle>
    <vehicle id="68" depart="66.00">
        <route edges="7 4"/>
    </vehicle>
    <vehicle id="69" depart="66.00">
        <route edges="6 4"/>
    </vehicle>
    <vehicle id="70" depart="66.00">
        <route edges="7 1"/>
    </vehicle>
    <vehicle id="71" depart="66.00">
        <route edges="0 3"/>
    </vehicle>
    <vehicle id="72" depart="66.00">
        <route edges="5 4"/>
    </vehicle>
    <vehicle id="73" depart="66.00">
        <route edges="6 1"/>
    </vehicle>
    <vehicle id="74" depart="66.00">
        <route edges="7 2"/>
    </vehicle>
    <vehicle id="75" depart="66.00">
        <route edges="0 1"/>
    </vehicle>
    <vehicle id="76" depart="66.00">
        <route edges="5 2"/>
    </vehicle>
    <vehicle id="77" depart="73.00">
        <route edges="0 2"/>
    </vehicle>
    <vehicle id="78" depart="73.00">
        <route edges="5 3"/>
    </vehicle>
    <vehicle id="79" depart="73.00">
        <route edges="6 4"/>
    </vehicle>
    <vehicle id="80" depart="73.00">
        <route edges="7 1"/>
    </vehicle>
    <vehicle id="81" depart="80.00">
        <route edges="0 2"/>
    </vehicle>
    <vehicle id="82" depart="80.00">
        <route edges="5 3"/>
    </vehicle>
    <vehicle id="83" depart="80.00">
        <route edges="6 3"/>
    </vehicle>
    <vehicle id="84" depart="80.00">
        <route edges="7 4"/>
    </vehicle>
    <vehicle id="85" depart="80.00">
        <route edges="6 4"/>
    </vehicle>
    <vehicle id="86" depart="80.00">
        <route edges="7 1"/>
    </vehicle>
    <vehicle id="87" depart="80.00">
        <route edges="0 3"/>
    </vehicle>
    <vehicle id="88" depart="80.00">
        <route edges="5 4"/>
    </vehicle>
    <vehicle id="89" depart="80.00">
        <route edges="6 1"/>
    </vehicle>
    <vehicle id="90" depart="80.00">
        <route edges="7 2"/>
    </vehicle>
    <vehicle id="91" depart="80.00">
        <route edges="0 1"/>
    </vehicle>
    <vehicle id="92" depart="80.00">
        <route edges="5 2"/>
    </vehicle>
    <vehicle id="93" depart="87.00">
        <route edges="0 2"/>
    </vehicle>
    <vehicle id="94" depart="87.00">
        <route edges="5 3"/>
    </vehicle>
    <vehicle id="95" depart="87.00">
        <route edges="6 4"/>
    </vehicle>
    <vehicle id="96" depart="87.00">
        <route edges="7 1"/>
    </vehicle>
    <vehicle id="97" depart="94.00">
        <route edges="0 2"/>
    </vehicle>
    <vehicle id="98" depart="94.00">
        <route edges="5 3"/>
    </vehicle>
    <vehicle id="99" depart="94.00">
        <route edges="6 3"/>
    </vehicle>
    <vehicle id="100" depart="94.00">
        <route edges="7 4"/>
    </vehicle>
    <vehicle id="101" depart="94.00">
        <route edges="6 4"/>
    </vehicle>
    <vehicle id="102" depart="94.00">
        <route edges="7 1"/>
    </vehicle>
    <vehicle id="103" depart="94.00">
        <route edges="0 3"/>
    </vehicle>
    <vehicle id="104" depart="94.00">
        <route edges="5 4"/>
    </vehicle>
    <vehicle id="105" depart="94.00">
        <route edges="6 1"/>
    </vehicle>
    <vehicle id="106" depart="94.00">
        <route edges="7 2"/>
    </vehicle>
    <vehicle id="107" depart="94.00">
        <route edges="0 1"/>
    </vehicle>
    <vehicle id="108" depart="94.00">
        <route edges="5 2"/>
    </vehicle>
    <vehicle id="109" depart="101.00">
        <route edges="0 2"/>
    </vehicle>
    <vehicle id="110" depart="101.00">
        <route edges="5 3"/>
    </vehicle>
    <vehicle id="111" depart="101.00">
        <route edges="6 4"/>
    </vehicle>
    <vehicle id="112" depart="101.00">
        <route edges="7 1"/>
    </vehicle>
    <vehicle id="113" depart="108.00">
        <route edges="0 2"/>
    </vehicle>
    <vehicle id="114" depart="108.00">
        <route edges="5 3"/>
    </vehicle>
    <vehicle id="115" depart="108.00">
        <route edges="6 3"/>
    </vehicle>
    <vehicle id="116" depart="108.00">
        <route edges="7 4"/>
    </vehicle>
    <vehicle id="117" depart="108.00">
        <route edges="6 4"/>
    </vehicle>
    <vehicle id="118" depart="108.00">
        <route edges="7 1"/>
    </vehicle>
    <vehicle id="119" depart="108.00">
        <route edges="0 3"/>
    </vehicle>
    <vehicle id="120" depart="108.00">
        <route edges="5 4"/>
    </vehicle>
    <vehicle id="121" depart="108.00">
        <route edges="6 1"/>
    </vehicle>
    <vehicle id="122" depart="108.00">
        <route edges="7 2"/>
    </vehicle>
    <vehicle id="123" depart="108.00">
        <route edges="0 1"/>
    </vehicle>
    <vehicle id="124" depart="108.00">
        <route edges="5 2"/>
    </vehicle>
    <vehicle id="125" depart="115.00">
        <route edges="0 2"/>
    </vehicle>
    <vehicle id="126" depart="115.00">
        <route edges="5 3"/>
    </vehicle>
    <vehicle id="127" depart="115.00">
        <route edges="6 4"/>
    </vehicle>
    <vehicle id="128" depart="115.00">
        <route edges="7 1"/>
    </vehicle>
    <vehicle id="129" depart="122.00">
        <route edges="0 2"/>
    </vehicle>
    <vehicle id="130" depart="122.00">
        <route edges="5 3"/>
    </vehicle>
    <vehicle id="131" depart="122.00">
        <route edges="6 3"/>
    </vehicle>
    <vehicle id="132" depart="122.00">
        <route edges="7 4"/>
    </vehicle>
    <vehicle id="133" depart="122.00">
        <route edges="6 4"/>
    </vehicle>
    <vehicle id="134" depart="122.00">
        <route edges="7 1"/>
    </vehicle>
    <vehicle id="135" depart="122.00">
        <route edges="0 3"/>
    </vehicle>
    <vehicle id="136" depart="122.00">
        <route edges="5 4"/>
    </vehicle>
    <vehicle id="137" depart="122.00">
        <route edges="6 1"/>
    </vehicle>
    <vehicle id="138" depart="122.00">
        <route edges="7 2"/>
    </vehicle>
    <vehicle id="139" depart="122.00">
        <route edges="0 1"/>
    </vehicle>
    <vehicle id="140" depart="122.00">
        <route edges="5 2"/>
    </vehicle>
    <vehicle id="141" depart="129.00">
        <route edges="0 2"/>
    </vehicle>
    <vehicle id="142" depart="129.00">
        <route edges="5 3"/>
    </vehicle>
    <vehicle id="143" depart="129.00">
        <route edges="6 4"/>
    </vehicle>
    <vehicle id="144" depart="129.00">
        <route edges="7 1"/>
    </vehicle>
    <vehicle id="145" depart="136.00">
        <route edges="0 2"/>
    </vehicle>
    <vehicle id="146" depart="136.00">
        <route edges="5 3"/>
    </vehicle>
    <vehicle id="147" depart="136.00">
        <route edges="6 3"/>
    </vehicle>
    <vehicle id="148" depart="136.00">
        <route edges="7 4"/>
    </vehicle>
    <vehicle id="149" depart="136.00">
        <route edges="6 4"/>
    </vehicle>
    <vehicle id="150" depart="136.00">
        <route edges="7 1"/>
    </vehicle>
    <vehicle id="151" depart="136.00">
        <route edges="0 3"/>
    </vehicle>
    <vehicle id="152" depart="136.00">
        <route edges="5 4"/>
    </vehicle>
    <vehicle id="153" depart="136.00">
        <route edges="6 1"/>
    </vehicle>
    <vehicle id="154" depart="136.00">
        <route edges="7 2"/>
    </vehicle>
    <vehicle id="155" depart="136.00">
        <route edges="0 1"/>
    </vehicle>
    <vehicle id="156" depart="136.00">
        <route edges="5 2"/>
    </vehicle>
    <vehicle id="157" depart="143.00">
        <route edges="0 2"/>
    </vehicle>
    <vehicle id="158" depart="143.00">
        <route edges="5 3"/>
    </vehicle>
    <vehicle id="159" depart="143.00">
        <route edges="6 4"/>
    </vehicle>
    <vehicle id="160" depart="143.00">
        <route edges="7 1"/>
    </vehicle>
    <vehicle id="161" depart="150.00">
        <route edges="0 2"/>
    </vehicle>
    <vehicle id="162" depart="150.00">
        <route edges="5 3"/>
    </vehicle>
    <vehicle id="163" depart="150.00">
        <route edges="6 3"/>
    </vehicle>
    <vehicle id="164" depart="150.00">
        <route edges="7 4"/>
    </vehicle>
    <vehicle id="165" depart="150.00">
        <route edges="6 4"/>
    </vehicle>
    <vehicle id="166" depart="150.00">
        <route edges="7 1"/>
    </vehicle>
    <vehicle id="167" depart="150.00">
        <route edges="0 3"/>
    </vehicle>
    <vehicle id="168" depart="150.00">
        <route edges="5 4"/>
    </vehicle>
    <vehicle id="169" depart="150.00">
        <route edges="6 1"/>
    </vehicle>
    <vehicle id="170" depart="150.00">
        <route edges="7 2"/>
    </vehicle>
    <vehicle id="171" depart="150.00">
        <route edges="0 1"/>
    </vehicle>
    <vehicle id="172" depart="150.00">
        <route edges="5 2"/>
    </vehicle>
    <vehicle id="173" depart="157.00">
        <route edges="0 2"/>
    </vehicle>
    <vehicle id="174" depart="157.00">
        <route edges="5 3"/>
    </vehicle>
    <vehicle id="175" depart="157.00">
        <route edges="6 4"/>
    </vehicle>
    <vehicle id="176" depart="157.00">
        <route edges="7 1"/>
    </vehicle>
    <vehicle id="177" depart="164.00">
        <route edges="0 2"/>
    </vehicle>
    <vehicle id="178" depart="164.00">
        <route edges="5 3"/>
    </vehicle>
    <vehicle id="179" depart="164.00">
        <route edges="6 3"/>
    </vehicle>
    <vehicle id="180" depart="164.00">
        <route edges="7 4"/>
    </vehicle>
    <vehicle id="181" depart="164.00">
        <route edges="6 4"/>
    </vehicle>
    <vehicle id="182" depart="164.00">
        <route edges="7 1"/>
    </vehicle>
    <vehicle id="183" depart="164.00">
        <route edges="0 3"/>
    </vehicle>
    <vehicle id="184" depart="164.00">
        <route edges="5 4"/>
    </vehicle>
    <vehicle id="185" depart="164.00">
        <route edges="6 1"/>
    </vehicle>
    <vehicle id="186" depart="164.00">
        <route edges="7 2"/>
    </vehicle>
    <vehicle id="187" depart="164.00">
        <route edges="0 1"/>
    </vehicle>
    <vehicle id="188" depart="164.00">
        <route edges="5 2"/>
    </vehicle>
    <vehicle id="189" depart="171.00">
        <route edges="0 2"/>
    </vehicle>
    <vehicle id="190" depart="171.00">
        <route edges="5 3"/>
    </vehicle>
    <vehicle id="191" depart="171.00">
        <route edges="6 4"/>
    </vehicle>
    <vehicle id="192" depart="171.00">
        <route edges="7 1"/>
    </vehicle>
    <vehicle id="193" depart="178.00">
        <route edges="0 2"/>
    </vehicle>
    <vehicle id="194" depart="178.00">
        <route edges="5 3"/>
    </vehicle>
    <vehicle id="195" depart="178.00">
        <route edges="6 3"/>
    </vehicle>
    <vehicle id="196" depart="178.00">
        <route edges="7 4"/>
    </vehicle>
    <vehicle id="197" depart="178.00">
        <route edges="6 4"/>
    </vehicle>
    <vehicle id="198" depart="178.00">
        <route edges="7 1"/>
    </vehicle>
    <vehicle id="199" depart="178.00">
        <route edges="0 3"/>
    </vehicle>
    <vehicle id="200" depart="178.00">
        <route edges="5 4"/>
    </vehicle>
    <vehicle id="201" depart="178.00">
        <route edges="6 1"/>
    </vehicle>
    <vehicle id="202" depart="178.00">
        <route edges="7 2"/>
    </vehicle>
    <vehicle id="203" depart="178.00">
        <route edges="0 1"/>
    </vehicle>
    <vehicle id="204" depart="178.00">
        <route edges="5 2"/>
    </vehicle>
    <vehicle id="205" depart="185.00">
        <route edges="0 2"/>
    </vehicle>
    <vehicle id="206" depart="185.00">
        <route edges="5 3"/>
    </vehicle>
    <vehicle id="207" depart="185.00">
        <route edges="6 4"/>
    </vehicle>
    <vehicle id="208" depart="185.00">
        <route edges="7 1"/>
    </vehicle>
    <vehicle id="209" depart="192.00">
        <route edges="0 2"/>
    </vehicle>
    <vehicle id="210" depart="192.00">
        <route edges="5 3"/>
    </vehicle>
    <vehicle id="211" depart="192.00">
        <route edges="6 3"/>
    </vehicle>
    <vehicle id="212" depart="192.00">
        <route edges="7 4"/>
    </vehicle>
    <vehicle id="213" depart="192.00">
        <route edges="6 4"/>
    </vehicle>
    <vehicle id="214" depart="192.00">
        <route edges="7 1"/>
    </vehicle>
    <vehicle id="215" depart="192.00">
        <route edges="0 3"/>
    </vehicle>
    <vehicle id="216" depart="192.00">
        <route edges="5 4"/>
    </vehicle>
    <vehicle id="217" depart="192.00">
        <route edges="6 1"/>
    </vehicle>
    <vehicle id="218" depart="192.00">
        <route edges="7 2"/>
    </vehicle>
    <vehicle id="219" depart="192.00">
        <route edges="0 1"/>
    </vehicle>
    <vehicle id="220" depart="192.00">
        <route edges="5 2"/>
    </vehicle>
    <vehicle id="221" depart="199.00">
        <route edges="0 2"/>
    </vehicle>
    <vehicle id="222" depart="199.00">
        <route edges="5 3"/>
    </vehicle>
    <vehicle id="223" depart="199.00">
        <route edges="6 4"/>
    </vehicle>
    <vehicle id="224" depart="199.00">
        <route edges="7 1"/>
    </vehicle>
    <vehicle id="225" depart="206.00">
        <route edges="0 2"/>
    </vehicle>
    <vehicle id="226" depart="206.00">
        <route edges="5 3"/>
    </vehicle>
    <vehicle id="227" depart="206.00">
        <route edges="6 3"/>
    </vehicle>
    <vehicle id="228" depart="206.00">
        <route edges="7 4"/>
    </vehicle>
    <vehicle id="229" depart="206.00">
        <route edges="6 4"/>
    </vehicle>
    <vehicle id="230" depart="206.00">
        <route edges="7 1"/>
    </vehicle>
    <vehicle id="231" depart="206.00">
        <route edges="0 3"/>
    </vehicle>
    <vehicle id="232" depart="206.00">
        <route edges="5 4"/>
    </vehicle>
    <vehicle id="233" depart="206.00">
        <route edges="6 1"/>
    </vehicle>
    <vehicle id="234" depart="206.00">
        <route edges="7 2"/>
    </vehicle>
    <vehicle id="235" depart="206.00">
        <route edges="0 1"/>
    </vehicle>
    <vehicle id="236" depart="206.00">
        <route edges="5 2"/>
    </vehicle>
    <vehicle id="237" depart="213.00">
        <route edges="0 2"/>
    </vehicle>
    <vehicle id="238" depart="213.00">
        <route edges="5 3"/>
    </vehicle>
    <vehicle id="239" depart="213.00">
        <route edges="6 4"/>
    </vehicle>
    <vehicle id="240" depart="213.00">
        <route edges="7 1"/>
    </vehicle>
    <vehicle id="241" depart="220.00">
        <route edges="0 2"/>
    </vehicle>
    <vehicle id="242" depart="220.00">
        <route edges="5 3"/>
    </vehicle>
    <vehicle id="243" depart="220.00">
        <route edges="6 3"/>
    </vehicle>
    <vehicle id="244" depart="220.00">
        <route edges="7 4"/>
    </vehicle>
    <vehicle id="245" depart="220.00">
        <route edges="6 4"/>
    </vehicle>
    <vehicle id="246" depart="220.00">
        <route edges="7 1"/>
    </vehicle>
    <vehicle id="247" depart="220.00">
        <route edges="0 3"/>
    </vehicle>
    <vehicle id="248" depart="220.00">
        <route edges="5 4"/>
    </vehicle>
    <vehicle id="249" depart="220.00">
        <route edges="6 1"/>
    </vehicle>
    <vehicle id="250" depart="220.00">
        <route edges="7 2"/>
    </vehicle>
    <vehicle id="251" depart="220.00">
        <route edges="0 1"/>
    </vehicle>
    <vehicle id="252" depart="220.00">
        <route edges="5 2"/>
    </vehicle>
    <vehicle id="253" depart="227.00">
        <route edges="0 2"/>
    </vehicle>
    <vehicle id="254" depart="227.00">
        <route edges="5 3"/>
    </vehicle>
    <vehicle id="255" depart="227.00">
        <route edges="6 4"/>
    </vehicle>
    <vehicle id="256" depart="227.00">
        <route edges="7 1"/>
    </vehicle>
    <vehicle id="257" depart="234.00">
        <route edges="0 2"/>
    </vehicle>
    <vehicle id="258" depart="234.00">
        <route edges="5 3"/>
    </vehicle>
    <vehicle id="259" depart="234.00">
        <route edges="6 3"/>
    </vehicle>
    <vehicle id="260" depart="234.00">
        <route edges="7 4"/>
    </vehicle>
    <vehicle id="261" depart="234.00">
        <route edges="6 4"/>
    </vehicle>
    <vehicle id="262" depart="234.00">
        <route edges="7 1"/>
    </vehicle>
    <vehicle id="263" depart="234.00">
        <route edges="0 3"/>
    </vehicle>
    <vehicle id="264" depart="234.00">
        <route edges="5 4"/>
    </vehicle>
    <vehicle id="265" depart="234.00">
        <route edges="6 1"/>
    </vehicle>
    <vehicle id="266" depart="234.00">
        <route edges="7 2"/>
    </vehicle>
    <vehicle id="267" depart="234.00">
        <route edges="0 1"/>
    </vehicle>
    <vehicle id="268" depart="234.00">
        <route edges="5 2"/>
    </vehicle>
    <vehicle id="269" depart="241.00">
        <route edges="0 2"/>
    </vehicle>
    <vehicle id="270" depart="241.00">
        <route edges="5 3"/>
    </vehicle>
    <vehicle id="271" depart="241.00">
        <route edges="6 4"/>
    </vehicle>
    <vehicle id="272" depart="241.00">
        <route edges="7 1"/>
    </vehicle>
    <vehicle id="273" depart="248.00">
        <route edges="0 2"/>
    </vehicle>
    <vehicle id="274" depart="248.00">
        <route edges="5 3"/>
    </vehicle>
    <vehicle id="275" depart="248.00">
        <route edges="6 3"/>
    </vehicle>
    <vehicle id="276" depart="248.00">
        <route edges="7 4"/>
    </vehicle>
    <vehicle id="277" depart="248.00">
        <route edges="6 4"/>
    </vehicle>
    <vehicle id="278" depart="248.00">
        <route edges="7 1"/>
    </vehicle>
    <vehicle id="279" depart="248.00">
        <route edges="0 3"/>
    </vehicle>
    <vehicle id="280" depart="248.00">
        <route edges="5 4"/>
    </vehicle>
    <vehicle id="281" depart="248.00">
        <route edges="6 1"/>
    </vehicle>
    <vehicle id="282" depart="248.00">
        <route edges="7 2"/>
    </vehicle>
    <vehicle id="283" depart="248.00">
        <route edges="0 1"/>
    </vehicle>
    <vehicle id="284" depart="248.00">
        <route edges="5 2"/>
    </vehicle>
    <vehicle id="285" depart="255.00">
        <route edges="0 2"/>
    </vehicle>
    <vehicle id="286" depart="255.00">
        <route edges="5 3"/>
    </vehicle>
    <vehicle id="287" depart="255.00">
        <route edges="6 4"/>
    </vehicle>
    <vehicle id="288" depart="255.00">
        <route edges="7 1"/>
    </vehicle>
    <vehicle id="289" depart="262.00">
        <route edges="0 2"/>
    </vehicle>
    <vehicle id="290" depart="262.00">
        <route edges="5 3"/>
    </vehicle>
    <vehicle id="291" depart="262.00">
        <route edges="6 3"/>
    </vehicle>
    <vehicle id="292" depart="262.00">
        <route edges="7 4"/>
    </vehicle>
    <vehicle id="293" depart="262.00">
        <route edges="6 4"/>
    </vehicle>
    <vehicle id="294" depart="262.00">
        <route edges="7 1"/>
    </vehicle>
    <vehicle id="295" depart="262.00">
        <route edges="0 3"/>
    </vehicle>
    <vehicle id="296" depart="262.00">
        <route edges="5 4"/>
    </vehicle>
    <vehicle id="297" depart="262.00">
        <route edges="6 1"/>
    </vehicle>
    <vehicle id="298" depart="262.00">
        <route edges="7 2"/>
    </vehicle>
    <vehicle id="299" depart="262.00">
        <route edges="0 1"/>
    </vehicle>
    <vehicle id="300" depart="262.00">
        <route edges="5 2"/>
    </vehicle>
    <vehicle id="301" depart="269.00">
        <route edges="0 2"/>
    </vehicle>
    <vehicle id="302" depart="269.00">
        <route edges="5 3"/>
    </vehicle>
    <vehicle id="303" depart="269.00">
        <route edges="6 4"/>
    </vehicle>
    <vehicle id="304" depart="269.00">
        <route edges="7 1"/>
    </vehicle>
    <vehicle id="305" depart="276.00">
        <route edges="0 2"/>
    </vehicle>
    <vehicle id="306" depart="276.00">
        <route edges="5 3"/>
    </vehicle>
    <vehicle id="307" depart="276.00">
        <route edges="6 3"/>
    </vehicle>
    <vehicle id="308" depart="276.00">
        <route edges="7 4"/>
    </vehicle>
    <vehicle id="309" depart="276.00">
        <route edges="6 4"/>
    </vehicle>
    <vehicle id="310" depart="276.00">
        <route edges="7 1"/>
    </vehicle>
    <vehicle id="311" depart="276.00">
        <route edges="0 3"/>
    </vehicle>
    <vehicle id="312" depart="276.00">
        <route edges="5 4"/>
    </vehicle>
    <vehicle id="313" depart="276.00">
        <route edges="6 1"/>
    </vehicle>
    <vehicle id="314" depart="276.00">
        <route edges="7 2"/>
    </vehicle>
    <vehicle id="315" depart="276.00">
        <route edges="0 1"/>
    </vehicle>
    <vehicle id="316" depart="276.00">
        <route edges="5 2"/>
    </vehicle>
    <vehicle id="317" depart="283.00">
        <route edges="0 2"/>
    </vehicle>
    <vehicle id="318" depart="283.00">
        <route edges="5 3"/>
    </vehicle>
    <vehicle id="319" depart="283.00">
        <route edges="6 4"/>
    </vehicle>
    <vehicle id="320" depart="283.00">
        <route edges="7 1"/>
    </vehicle>
    <vehicle id="321" depart="290.00">
        <route edges="0 2"/>
    </vehicle>
    <vehicle id="322" depart="290.00">
        <route edges="5 3"/>
    </vehicle>
    <vehicle id="323" depart="290.00">
        <route edges="6 3"/>
    </vehicle>
    <vehicle id="324" depart="290.00">
        <route edges="7 4"/>
    </vehicle>
    <vehicle id="325" depart="290.00">
        <route edges="6 4"/>
    </vehicle>
    <vehicle id="326" depart="290.00">
        <route edges="7 1"/>
    </vehicle>
    <vehicle id="327" depart="290.00">
        <route edges="0 3"/>
    </vehicle>
    <vehicle id="328" depart="290.00">
        <route edges="5 4"/>
    </vehicle>
    <vehicle id="329" depart="290.00">
        <route edges="6 1"/>
    </vehicle>
    <vehicle id="330" depart="290.00">
        <route edges="7 2"/>
    </vehicle>
    <vehicle id="331" depart="290.00">
        <route edges="0 1"/>
    </vehicle>
    <vehicle id="332" depart="290.00">
        <route edges="5 2"/>
    </vehicle>
    <vehicle id="333" depart="297.00">
        <route edges="0 2"/>
    </vehicle>
    <vehicle id="334" depart="297.00">
        <route edges="5 3"/>
    </vehicle>
    <vehicle id="335" depart="297.00">
        <route edges="6 4"/>
    </vehicle>
    <vehicle id="336" depart="297.00">
        <route edges="7 1"/>
    </vehicle>
    <vehicle id="337" depart="304.00">
        <route edges="0 2"/>
    </vehicle>
    <vehicle id="338" depart="304.00">
        <route edges="5 3"/>
    </vehicle>
    <vehicle id="339" depart="304.00">
        <route edges="6 3"/>
    </vehicle>
    <vehicle id="340" depart="304.00">
        <route edges="7 4"/>
    </vehicle>
    <vehicle id="341" depart="304.00">
        <route edges="6 4"/>
    </vehicle>
    <vehicle id="342" depart="304.00">
        <route edges="7 1"/>
    </vehicle>
    <vehicle id="343" depart="304.00">
        <route edges="0 3"/>
    </vehicle>
    <vehicle id="344" depart="304.00">
        <route edges="5 4"/>
    </vehicle>
    <vehicle id="345" depart="304.00">
        <route edges="6 1"/>
    </vehicle>
    <vehicle id="346" depart="304.00">
        <route edges="7 2"/>
    </vehicle>
    <vehicle id="347" depart="304.00">
        <route edges="0 1"/>
    </vehicle>
    <vehicle id="348" depart="304.00">
        <route edges="5 2"/>
    </vehicle>
    <vehicle id="349" depart="311.00">
        <route edges="0 2"/>
    </vehicle>
    <vehicle id="350" depart="311.00">
        <route edges="5 3"/>
    </vehicle>
    <vehicle id="351" depart="311.00">
        <route edges="6 4"/>
    </vehicle>
    <vehicle id="352" depart="311.00">
        <route edges="7 1"/>
    </vehicle>
    <vehicle id="353" depart="318.00">
        <route edges="0 2"/>
    </vehicle>
    <vehicle id="354" depart="318.00">
        <route edges="5 3"/>