<?xml version="1.0" encoding="UTF-8"?>

<!-- generated on 07/31/18 14:21:07 by SUMO duarouter Version 0.32.0
<?xml version="1.0" encoding="UTF-8"?>

<configuration xmlns:xsi="http://www.w3.org/2001/XMLSchema-instance" xsi:noNamespaceSchemaLocation="http://sumo.dlr.de/xsd/duarouterConfiguration.xsd">

    <input>
        <net-file value="test_snail\test_snail.net.xml"/>
        <route-files value="test_snail\test_snail.trips.xml"/>
    </input>

    <output>
        <output-file value="test_snail\test_snail.rou.xml"/>
        <alternatives-output value="test_snail\test_snail.rou.alt.xml"/>
    </output>

    <processing>
        <ignore-errors value="true"/>
        <routing-algorithm value="astar"/>
    </processing>

</configuration>
-->

<routes xmlns:xsi="http://www.w3.org/2001/XMLSchema-instance" xsi:noNamespaceSchemaLocation="http://sumo.dlr.de/xsd/routes_file.xsd">
    <vehicle id="1" depart="1.00">
        <route edges="1 2 3 4 5 6 7 8 9 10"/>
    </vehicle>
    <vehicle id="2" depart="2.00">
        <route edges="1 2 3 4 5 6 7 8 9 10"/>
    </vehicle>
    <vehicle id="3" depart="3.00">
        <route edges="1 2 3 4 5 6 7 8 9 10"/>
    </vehicle>
    <vehicle id="50" depart="4.00">
        <route edges="1 2 3 4 5 6 7 8 9 10"/>
    </vehicle>
    <vehicle id="51" depart="5.00">
        <route edges="1 2 3 4 5 6 7 8 9 10"/>
    </vehicle>
    <vehicle id="52" depart="6.00">
        <route edges="1 2 3 4 5 6 7 8 9 10"/>
    </vehicle>
    <vehicle id="4" depart="4.00">
        <route edges="3 4 5 6 7 8 9"/>
    </vehicle>
    <vehicle id="5" depart="5.00">
        <route edges="7 8 9 10"/>
    </vehicle>
    <vehicle id="7" depart="7.00">
        <route edges="7"/>
    </vehicle>
    <vehicle id="8" depart="8.00">
        <route edges="3 4 5"/>
    </vehicle>
    <vehicle id="9" depart="9.00">
        <route edges="7"/>
    </vehicle>
    <vehicle id="11" depart="11.00">
        <route edges="7 8 9"/>
    </vehicle>
    <vehicle id="13" depart="13.00">
        <route edges="7"/>
    </vehicle>
    <vehicle id="14" depart="14.00">
        <route edges="1 2"/>
    </vehicle>
    <vehicle id="16" depart="16.00">
        <route edges="7"/>
    </vehicle>
    <vehicle id="17" depart="17.00">
        <route edges="5 6"/>
    </vehicle>
    <vehicle id="22" depart="22.00">
        <route edges="7 8 9 10"/>
    </vehicle>
    <vehicle id="24" depart="24.00">
        <route edges="2 3 4 5 6 7 8 9"/>
    </vehicle>
    <vehicle id="25" depart="25.00">
        <route edges="4 5 6 7 8"/>
    </vehicle>
    <vehicle id="27" depart="27.00">
        <route edges="5 6"/>
    </vehicle>
    <vehicle id="28" depart="28.00">
        <route edges="4"/>
    </vehicle>
    <vehicle id="29" depart="29.00">
        <route edges="4 5 6 7"/>
    </vehicle>
    <vehicle id="30" depart="30.00">
        <route edges="6 7"/>
    </vehicle>
    <vehicle id="31" depart="31.00">
        <route edges="9"/>
    </vehicle>
    <vehicle id="33" depart="33.00">
        <route edges="7 8 9 10"/>
    </vehicle>
    <vehicle id="34" depart="34.00">
        <route edges="5 6 7"/>
    </vehicle>
    <vehicle id="35" depart="35.00">
        <route edges="3"/>
    </vehicle>
    <vehicle id="37" depart="37.00">
        <route edges="7"/>
    </vehicle>
    <vehicle id="38" depart="38.00">
        <route edges="7"/>
    </vehicle>
    <vehicle id="39" depart="39.00">
        <route edges="9 10"/>
    </vehicle>
    <vehicle id="40" depart="40.00">
        <route edges="4 5 6 7 8 9 10"/>
    </vehicle>
    <vehicle id="41" depart="41.00">
        <route edges="7"/>
    </vehicle>
    <vehicle id="42" depart="42.00">
        <route edges="7"/>
    </vehicle>
    <vehicle id="43" depart="43.00">
        <route edges="4 5 6 7 8 9"/>
    </vehicle>
    <vehicle id="44" depart="44.00">
        <route edges="3 4 5 6 7 8 9 10"/>
    </vehicle>
    <vehicle id="45" depart="45.00">
        <route edges="7"/>
    </vehicle>
    <vehicle id="47" depart="47.00">
        <route edges="3 4 5 6"/>
    </vehicle>
    <vehicle id="49" depart="49.00">
        <route edges="5 6 7"/>
    </vehicle> 
</routes>
