<?xml version="1.0" encoding="UTF-8"?>

<net version="0.13" xmlns:xsi="http://www.w3.org/2001/XMLSchema-instance" xsi:noNamespaceSchemaLocation="http://sumo-sim.org/xsd/net_file.xsd">
    <location netOffset="0.0,0.0" convBoundary="0.00,0.00,665.37,811.53" origBoundary="14.388600,50.068250,14.516399,50.128835" projParameter="+proj=utm +zone=33 +ellps=WGS84 +datum=WGS84 +units=m +no_defs"/>
   <!-- <edge id="0" from="start" to="preparation" priority="7" type="highway.secondary">
        <lane id="0_0" index="0" speed="42" length="16.72" shape="0.0,0.0 0.0,10.0"/>
        <lane id="0_1" index="1" speed="42" length="16.72" shape="-3.5,0.0 -3.5,10.0"/>
    </edge>-->
    <edge id="1" from="start" to="end" priority="7" type="highway.secondary">
        <lane id="1_0" index="0" speed="42" length="16.72" shape="0.0,0.0 0.0,1200.0"/>
       <!-- <lane id="1_1" index="1" speed="42" length="16.72" shape="-3.5,0.0 -3.5,1200.0"/>-->
    </edge>
    <edge id="0" from="start" to="end" priority="7" type="highway.secondary">
        <lane id="0_0" index="0" speed="42" length="16.72" shape="-3.5,0.0 -3.5,1200.0"/>
    </edge>

    <junction id="start" type="dead_end" x="0.00" y="0.00" incLanes="" intLanes="" shape=""/>
   <!-- <junction id="preparation" type="unregulated" x="0.00" y="10.00" incLanes="0_0" intLanes="" shape=""/>-->
    <junction id="end" type="dead_end" x="0.00" y="1200.00" incLanes="1_0" intLanes="" shape=""/>

   <!-- <connection from="0" to="1" fromLane="0" toLane="0" dir="s" state="M"/>-->
   <!-- <connection from="0" to="1" fromLane="1" toLane="1" dir="s" state="M"/>-->
</net>
