<flows>
    <flow id="one" from="0" to="1" begin="0" end="180" number="1000"/>
</flows>

