<?xml version="1.0" encoding="UTF-8"?>

<!-- generated on Mon May 11 16:16:18 2015 by SUMO duarouter Version 0.22.0
<?xml version="1.0" encoding="UTF-8"?>

<configuration xmlns:xsi="http://www.w3.org/2001/XMLSchema-instance" xsi:noNamespaceSchemaLocation="http://sumo.dlr.de/xsd/duarouterConfiguration.xsd">

    <input>
        <net-file value="artificialHighway/artificialHighway.net.xml"/>
        <flow-files value="artificialHighway/artificialHighway.flows.xml"/>
    </input>

    <output>
        <output-file value="artificialHighway/artificialHighway.rou.xml"/>
    </output>

    <processing>
        <ignore-errors value="true"/>
        <routing-algorithm value="astar"/>
    </processing>

    <report>
        <no-warnings value="true"/>
    </report>

</configuration>
-->

<routes xmlns:xsi="http://www.w3.org/2001/XMLSchema-instance" xsi:noNamespaceSchemaLocation="http://sumo.dlr.de/xsd/routes_file.xsd">
    <vehicle id="1" depart="0.00">
        <route edges="0 1"/>
    </vehicle>
    <vehicle id="2" depart="0.18">
        <route edges="0 1"/>
    </vehicle>
    <vehicle id="3" depart="0.36">
        <route edges="0 1"/>
    </vehicle>
    <vehicle id="4" depart="0.54">
        <route edges="0 1"/>
    </vehicle>
    <vehicle id="5" depart="0.72">
        <route edges="0 1"/>
    </vehicle>
    <vehicle id="6" depart="0.90">
        <route edges="0 1"/>
    </vehicle>
    <vehicle id="7" depart="1.08">
        <route edges="0 1"/>
    </vehicle>
    <vehicle id="8" depart="1.26">
        <route edges="0 1"/>
    </vehicle>
    <vehicle id="9" depart="1.44">
        <route edges="0 1"/>
    </vehicle>
    <vehicle id="10" depart="1.62">
        <route edges="0 1"/>
    </vehicle>
    <vehicle id="11" depart="1.80">
        <route edges="0 1"/>
    </vehicle>
    <vehicle id="12" depart="1.98">
        <route edges="0 1"/>
    </vehicle>
    <vehicle id="13" depart="2.16">
        <route edges="0 1"/>
    </vehicle>
    <vehicle id="14" depart="2.34">
        <route edges="0 1"/>
    </vehicle>
    <vehicle id="15" depart="2.52">
        <route edges="0 1"/>
    </vehicle>
    <vehicle id="16" depart="2.70">
        <route edges="0 1"/>
    </vehicle>
    <vehicle id="17" depart="2.88">
        <route edges="0 1"/>
    </vehicle>
    <vehicle id="18" depart="3.06">
        <route edges="0 1"/>
    </vehicle>
    <vehicle id="19" depart="3.24">
        <route edges="0 1"/>
    </vehicle>
    <vehicle id="20" depart="3.42">
        <route edges="0 1"/>
    </vehicle>
    <vehicle id="21" depart="3.60">
        <route edges="0 1"/>
    </vehicle>
    <vehicle id="22" depart="3.78">
        <route edges="0 1"/>
    </vehicle>
    <vehicle id="23" depart="3.96">
        <route edges="0 1"/>
    </vehicle>
    <vehicle id="24" depart="4.14">
        <route edges="0 1"/>
    </vehicle>
    <vehicle id="25" depart="4.32">
        <route edges="0 1"/>
    </vehicle>
    <vehicle id="26" depart="4.50">
        <route edges="0 1"/>
    </vehicle>
    <vehicle id="27" depart="4.68">
        <route edges="0 1"/>
    </vehicle>
    <vehicle id="28" depart="4.86">
        <route edges="0 1"/>
    </vehicle>
    <vehicle id="29" depart="5.04">
        <route edges="0 1"/>
    </vehicle>
    <vehicle id="30" depart="5.22">
        <route edges="0 1"/>
    </vehicle>
    <vehicle id="31" depart="5.40">
        <route edges="0 1"/>
    </vehicle>
    <vehicle id="32" depart="5.58">
        <route edges="0 1"/>
    </vehicle>
    <vehicle id="33" depart="5.76">
        <route edges="0 1"/>
    </vehicle>
    <vehicle id="34" depart="5.94">
        <route edges="0 1"/>
    </vehicle>
    <vehicle id="35" depart="6.12">
        <route edges="0 1"/>
    </vehicle>
    <vehicle id="36" depart="6.30">
        <route edges="0 1"/>
    </vehicle>
    <vehicle id="37" depart="6.48">
        <route edges="0 1"/>
    </vehicle>
    <vehicle id="38" depart="6.66">
        <route edges="0 1"/>
    </vehicle>
    <vehicle id="39" depart="6.84">
        <route edges="0 1"/>
    </vehicle>
    <vehicle id="40" depart="7.02">
        <route edges="0 1"/>
    </vehicle>
    <vehicle id="41" depart="7.20">
        <route edges="0 1"/>
    </vehicle>
    <vehicle id="42" depart="7.38">
        <route edges="0 1"/>
    </vehicle>
    <vehicle id="43" depart="7.56">
        <route edges="0 1"/>
    </vehicle>
    <vehicle id="44" depart="7.74">
        <route edges="0 1"/>
    </vehicle>
    <vehicle id="45" depart="7.92">
        <route edges="0 1"/>
    </vehicle>
    <vehicle id="46" depart="8.10">
        <route edges="0 1"/>
    </vehicle>
    <vehicle id="47" depart="8.28">
        <route edges="0 1"/>
    </vehicle>
    <vehicle id="48" depart="8.46">
        <route edges="0 1"/>
    </vehicle>
    <vehicle id="49" depart="8.64">
        <route edges="0 1"/>
    </vehicle>
    <vehicle id="50" depart="8.82">
        <route edges="0 1"/>
    </vehicle>
    <vehicle id="51" depart="9.00">
        <route edges="0 1"/>
    </vehicle>
    <vehicle id="52" depart="9.18">
        <route edges="0 1"/>
    </vehicle>
    <vehicle id="53" depart="9.36">
        <route edges="0 1"/>
    </vehicle>
    <vehicle id="54" depart="9.54">
        <route edges="0 1"/>
    </vehicle>
    <vehicle id="55" depart="9.72">
        <route edges="0 1"/>
    </vehicle>
    <vehicle id="56" depart="9.90">
        <route edges="0 1"/>
    </vehicle>
    <vehicle id="57" depart="10.08">
        <route edges="0 1"/>
    </vehicle>
    <vehicle id="58" depart="10.26">
        <route edges="0 1"/>
    </vehicle>
    <vehicle id="59" depart="10.44">
        <route edges="0 1"/>
    </vehicle>
    <vehicle id="60" depart="10.62">
        <route edges="0 1"/>
    </vehicle>
    <vehicle id="61" depart="10.80">
        <route edges="0 1"/>
    </vehicle>
    <vehicle id="62" depart="10.98">
        <route edges="0 1"/>
    </vehicle>
    <vehicle id="63" depart="11.16">
        <route edges="0 1"/>
    </vehicle>
    <vehicle id="64" depart="11.34">
        <route edges="0 1"/>
    </vehicle>
    <vehicle id="65" depart="11.52">
        <route edges="0 1"/>
    </vehicle>
    <vehicle id="66" depart="11.70">
        <route edges="0 1"/>
    </vehicle>
    <vehicle id="67" depart="11.88">
        <route edges="0 1"/>
    </vehicle>
    <vehicle id="68" depart="12.06">
        <route edges="0 1"/>
    </vehicle>
    <vehicle id="69" depart="12.24">
        <route edges="0 1"/>
    </vehicle>
    <vehicle id="70" depart="12.42">
        <route edges="0 1"/>
    </vehicle>
    <vehicle id="71" depart="12.60">
        <route edges="0 1"/>
    </vehicle>
    <vehicle id="72" depart="12.78">
        <route edges="0 1"/>
    </vehicle>
    <vehicle id="73" depart="12.96">
        <route edges="0 1"/>
    </vehicle>
    <vehicle id="74" depart="13.14">
        <route edges="0 1"/>
    </vehicle>
    <vehicle id="75" depart="13.32">
        <route edges="0 1"/>
    </vehicle>
    <vehicle id="76" depart="13.50">
        <route edges="0 1"/>
    </vehicle>
    <vehicle id="77" depart="13.68">
        <route edges="0 1"/>
    </vehicle>
    <vehicle id="78" depart="13.86">
        <route edges="0 1"/>
    </vehicle>
    <vehicle id="79" depart="14.04">
        <route edges="0 1"/>
    </vehicle>
    <vehicle id="80" depart="14.22">
        <route edges="0 1"/>
    </vehicle>
    <vehicle id="81" depart="14.40">
        <route edges="0 1"/>
    </vehicle>
    <vehicle id="82" depart="14.58">
        <route edges="0 1"/>
    </vehicle>
    <vehicle id="83" depart="14.76">
        <route edges="0 1"/>
    </vehicle>
    <vehicle id="84" depart="14.94">
        <route edges="0 1"/>
    </vehicle>
    <vehicle id="85" depart="15.12">
        <route edges="0 1"/>
    </vehicle>
    <vehicle id="86" depart="15.30">
        <route edges="0 1"/>
    </vehicle>
    <vehicle id="87" depart="15.48">
        <route edges="0 1"/>
    </vehicle>
    <vehicle id="88" depart="15.66">
        <route edges="0 1"/>
    </vehicle>
    <vehicle id="89" depart="15.84">
        <route edges="0 1"/>
    </vehicle>
    <vehicle id="90" depart="16.02">
        <route edges="0 1"/>
    </vehicle>
    <vehicle id="91" depart="16.20">
        <route edges="0 1"/>
    </vehicle>
    <vehicle id="92" depart="16.38">
        <route edges="0 1"/>
    </vehicle>
    <vehicle id="93" depart="16.56">
        <route edges="0 1"/>
    </vehicle>
    <vehicle id="94" depart="16.74">
        <route edges="0 1"/>
    </vehicle>
    <vehicle id="95" depart="16.92">
        <route edges="0 1"/>
    </vehicle>
    <vehicle id="96" depart="17.10">
        <route edges="0 1"/>
    </vehicle>
    <vehicle id="97" depart="17.28">
        <route edges="0 1"/>
    </vehicle>
    <vehicle id="98" depart="17.46">
        <route edges="0 1"/>
    </vehicle>
    <vehicle id="99" depart="17.64">
        <route edges="0 1"/>
    </vehicle>
    <vehicle id="100" depart="17.82">
        <route edges="0 1"/>
    </vehicle>
    <vehicle id="101" depart="18.00">
        <route edges="0 1"/>
    </vehicle>
    <vehicle id="102" depart="18.18">
        <route edges="0 1"/>
    </vehicle>
    <vehicle id="103" depart="18.36">
        <route edges="0 1"/>
    </vehicle>
    <vehicle id="104" depart="18.54">
        <route edges="0 1"/>
    </vehicle>
    <vehicle id="105" depart="18.72">
        <route edges="0 1"/>
    </vehicle>
    <vehicle id="106" depart="18.90">
        <route edges="0 1"/>
    </vehicle>
    <vehicle id="107" depart="19.08">
        <route edges="0 1"/>
    </vehicle>
    <vehicle id="108" depart="19.26">
        <route edges="0 1"/>
    </vehicle>
    <vehicle id="109" depart="19.44">
        <route edges="0 1"/>
    </vehicle>
    <vehicle id="110" depart="19.62">
        <route edges="0 1"/>
    </vehicle>
    <vehicle id="111" depart="19.80">
        <route edges="0 1"/>
    </vehicle>
    <vehicle id="112" depart="19.98">
        <route edges="0 1"/>
    </vehicle>
    <vehicle id="113" depart="20.16">
        <route edges="0 1"/>
    </vehicle>
    <vehicle id="114" depart="20.34">
        <route edges="0 1"/>
    </vehicle>
    <vehicle id="115" depart="20.52">
        <route edges="0 1"/>
    </vehicle>
    <vehicle id="116" depart="20.70">
        <route edges="0 1"/>
    </vehicle>
    <vehicle id="117" depart="20.88">
        <route edges="0 1"/>
    </vehicle>
    <vehicle id="118" depart="21.06">
        <route edges="0 1"/>
    </vehicle>
    <vehicle id="119" depart="21.24">
        <route edges="0 1"/>
    </vehicle>
    <vehicle id="120" depart="21.42">
        <route edges="0 1"/>
    </vehicle>
    <vehicle id="121" depart="21.60">
        <route edges="0 1"/>
    </vehicle>
    <vehicle id="122" depart="21.78">
        <route edges="0 1"/>
    </vehicle>
    <vehicle id="123" depart="21.96">
        <route edges="0 1"/>
    </vehicle>
    <vehicle id="124" depart="22.14">
        <route edges="0 1"/>
    </vehicle>
    <vehicle id="125" depart="22.32">
        <route edges="0 1"/>
    </vehicle>
    <vehicle id="126" depart="22.50">
        <route edges="0 1"/>
    </vehicle>
    <vehicle id="127" depart="22.68">
        <route edges="0 1"/>
    </vehicle>
    <vehicle id="128" depart="22.86">
        <route edges="0 1"/>
    </vehicle>
    <vehicle id="129" depart="23.04">
        <route edges="0 1"/>
    </vehicle>
    <vehicle id="130" depart="23.22">
        <route edges="0 1"/>
    </vehicle>
    <vehicle id="131" depart="23.40">
        <route edges="0 1"/>
    </vehicle>
    <vehicle id="132" depart="23.58">
        <route edges="0 1"/>
    </vehicle>
    <vehicle id="133" depart="23.76">
        <route edges="0 1"/>
    </vehicle>
    <vehicle id="134" depart="23.94">
        <route edges="0 1"/>
    </vehicle>
    <vehicle id="135" depart="24.12">
        <route edges="0 1"/>
    </vehicle>
    <vehicle id="136" depart="24.30">
        <route edges="0 1"/>
    </vehicle>
    <vehicle id="137" depart="24.48">
        <route edges="0 1"/>
    </vehicle>
    <vehicle id="138" depart="24.66">
        <route edges="0 1"/>
    </vehicle>
    <vehicle id="139" depart="24.84">
        <route edges="0 1"/>
    </vehicle>
    <vehicle id="140" depart="25.02">
        <route edges="0 1"/>
    </vehicle>
    <vehicle id="141" depart="25.20">
        <route edges="0 1"/>
    </vehicle>
    <vehicle id="142" depart="25.38">
        <route edges="0 1"/>
    </vehicle>
    <vehicle id="143" depart="25.56">
        <route edges="0 1"/>
    </vehicle>
    <vehicle id="144" depart="25.74">
        <route edges="0 1"/>
    </vehicle>
    <vehicle id="145" depart="25.92">
        <route edges="0 1"/>
    </vehicle>
    <vehicle id="146" depart="26.10">
        <route edges="0 1"/>
    </vehicle>
    <vehicle id="147" depart="26.28">
        <route edges="0 1"/>
    </vehicle>
    <vehicle id="148" depart="26.46">
        <route edges="0 1"/>
    </vehicle>
    <vehicle id="149" depart="26.64">
        <route edges="0 1"/>
    </vehicle>
    <vehicle id="150" depart="26.82">
        <route edges="0 1"/>
    </vehicle>
    <vehicle id="151" depart="27.00">
        <route edges="0 1"/>
    </vehicle>
    <vehicle id="152" depart="27.18">
        <route edges="0 1"/>
    </vehicle>
    <vehicle id="153" depart="27.36">
        <route edges="0 1"/>
    </vehicle>
    <vehicle id="154" depart="27.54">
        <route edges="0 1"/>
    </vehicle>
    <vehicle id="155" depart="27.72">
        <route edges="0 1"/>
    </vehicle>
    <vehicle id="156" depart="27.90">
        <route edges="0 1"/>
    </vehicle>
    <vehicle id="157" depart="28.08">
        <route edges="0 1"/>
    </vehicle>
    <vehicle id="158" depart="28.26">
        <route edges="0 1"/>
    </vehicle>
    <vehicle id="159" depart="28.44">
        <route edges="0 1"/>
    </vehicle>
    <vehicle id="160" depart="28.62">
        <route edges="0 1"/>
    </vehicle>
    <vehicle id="161" depart="28.80">
        <route edges="0 1"/>
    </vehicle>
    <vehicle id="162" depart="28.98">
        <route edges="0 1"/>
    </vehicle>
    <vehicle id="163" depart="29.16">
        <route edges="0 1"/>
    </vehicle>
    <vehicle id="164" depart="29.34">
        <route edges="0 1"/>
    </vehicle>
    <vehicle id="165" depart="29.52">
        <route edges="0 1"/>
    </vehicle>
    <vehicle id="166" depart="29.70">
        <route edges="0 1"/>
    </vehicle>
    <vehicle id="167" depart="29.88">
        <route edges="0 1"/>
    </vehicle>
    <vehicle id="168" depart="30.06">
        <route edges="0 1"/>
    </vehicle>
    <vehicle id="169" depart="30.24">
        <route edges="0 1"/>
    </vehicle>
    <vehicle id="170" depart="30.42">
        <route edges="0 1"/>
    </vehicle>
    <vehicle id="171" depart="30.60">
        <route edges="0 1"/>
    </vehicle>
    <vehicle id="172" depart="30.78">
        <route edges="0 1"/>
    </vehicle>
    <vehicle id="173" depart="30.96">
        <route edges="0 1"/>
    </vehicle>
    <vehicle id="174" depart="31.14">
        <route edges="0 1"/>
    </vehicle>
    <vehicle id="175" depart="31.32">
        <route edges="0 1"/>
    </vehicle>
    <vehicle id="176" depart="31.50">
        <route edges="0 1"/>
    </vehicle>
    <vehicle id="177" depart="31.68">
        <route edges="0 1"/>
    </vehicle>
    <vehicle id="178" depart="31.86">
        <route edges="0 1"/>
    </vehicle>
    <vehicle id="179" depart="32.04">
        <route edges="0 1"/>
    </vehicle>
    <vehicle id="180" depart="32.22">
        <route edges="0 1"/>
    </vehicle>
    <vehicle id="181" depart="32.40">
        <route edges="0 1"/>
    </vehicle>
    <vehicle id="182" depart="32.58">
        <route edges="0 1"/>
    </vehicle>
    <vehicle id="183" depart="32.76">
        <route edges="0 1"/>
    </vehicle>
    <vehicle id="184" depart="32.94">
        <route edges="0 1"/>
    </vehicle>
    <vehicle id="185" depart="33.12">
        <route edges="0 1"/>
    </vehicle>
    <vehicle id="186" depart="33.30">
        <route edges="0 1"/>
    </vehicle>
    <vehicle id="187" depart="33.48">
        <route edges="0 1"/>
    </vehicle>
    <vehicle id="188" depart="33.66">
        <route edges="0 1"/>
    </vehicle>
    <vehicle id="189" depart="33.84">
        <route edges="0 1"/>
    </vehicle>
    <vehicle id="190" depart="34.02">
        <route edges="0 1"/>
    </vehicle>
    <vehicle id="191" depart="34.20">
        <route edges="0 1"/>
    </vehicle>
    <vehicle id="192" depart="34.38">
        <route edges="0 1"/>
    </vehicle>
    <vehicle id="193" depart="34.56">
        <route edges="0 1"/>
    </vehicle>
    <vehicle id="194" depart="34.74">
        <route edges="0 1"/>
    </vehicle>
    <vehicle id="195" depart="34.92">
        <route edges="0 1"/>
    </vehicle>
    <vehicle id="196" depart="35.10">
        <route edges="0 1"/>
    </vehicle>
    <vehicle id="197" depart="35.28">
        <route edges="0 1"/>
    </vehicle>
    <vehicle id="198" depart="35.46">
        <route edges="0 1"/>
    </vehicle>
    <vehicle id="199" depart="35.64">
        <route edges="0 1"/>
    </vehicle>
    <vehicle id="200" depart="35.82">
        <route edges="0 1"/>
    </vehicle>
    <vehicle id="201" depart="36.00">
        <route edges="0 1"/>
    </vehicle>
    <vehicle id="202" depart="36.18">
        <route edges="0 1"/>
    </vehicle>
    <vehicle id="203" depart="36.36">
        <route edges="0 1"/>
    </vehicle>
    <vehicle id="204" depart="36.54">
        <route edges="0 1"/>
    </vehicle>
    <vehicle id="205" depart="36.72">
        <route edges="0 1"/>
    </vehicle>
    <vehicle id="206" depart="36.90">
        <route edges="0 1"/>
    </vehicle>
    <vehicle id="207" depart="37.08">
        <route edges="0 1"/>
    </vehicle>
    <vehicle id="208" depart="37.26">
        <route edges="0 1"/>
    </vehicle>
    <vehicle id="209" depart="37.44">
        <route edges="0 1"/>
    </vehicle>
    <vehicle id="210" depart="37.62">
        <route edges="0 1"/>
    </vehicle>
    <vehicle id="211" depart="37.80">
        <route edges="0 1"/>
    </vehicle>
    <vehicle id="212" depart="37.98">
        <route edges="0 1"/>
    </vehicle>
    <vehicle id="213" depart="38.16">
        <route edges="0 1"/>
    </vehicle>
    <vehicle id="214" depart="38.34">
        <route edges="0 1"/>
    </vehicle>
    <vehicle id="215" depart="38.52">
        <route edges="0 1"/>
    </vehicle>
    <vehicle id="216" depart="38.70">
        <route edges="0 1"/>
    </vehicle>
    <vehicle id="217" depart="38.88">
        <route edges="0 1"/>
    </vehicle>
    <vehicle id="218" depart="39.06">
        <route edges="0 1"/>
    </vehicle>
    <vehicle id="219" depart="39.24">
        <route edges="0 1"/>
    </vehicle>
    <vehicle id="220" depart="39.42">
        <route edges="0 1"/>
    </vehicle>
    <vehicle id="221" depart="39.60">
        <route edges="0 1"/>
    </vehicle>
    <vehicle id="222" depart="39.78">
        <route edges="0 1"/>
    </vehicle>
    <vehicle id="223" depart="39.96">
        <route edges="0 1"/>
    </vehicle>
    <vehicle id="224" depart="40.14">
        <route edges="0 1"/>
    </vehicle>
    <vehicle id="225" depart="40.32">
        <route edges="0 1"/>
    </vehicle>
    <vehicle id="226" depart="40.50">
        <route edges="0 1"/>
    </vehicle>
    <vehicle id="227" depart="40.68">
        <route edges="0 1"/>
    </vehicle>
    <vehicle id="228" depart="40.86">
        <route edges="0 1"/>
    </vehicle>
    <vehicle id="229" depart="41.04">
        <route edges="0 1"/>
    </vehicle>
    <vehicle id="230" depart="41.22">
        <route edges="0 1"/>
    </vehicle>
    <vehicle id="231" depart="41.40">
        <route edges="0 1"/>
    </vehicle>
    <vehicle id="232" depart="41.58">
        <route edges="0 1"/>
    </vehicle>
    <vehicle id="233" depart="41.76">
        <route edges="0 1"/>
    </vehicle>
    <vehicle id="234" depart="41.94">
        <route edges="0 1"/>
    </vehicle>
    <vehicle id="235" depart="42.12">
        <route edges="0 1"/>
    </vehicle>
    <vehicle id="236" depart="42.30">
        <route edges="0 1"/>
    </vehicle>
    <vehicle id="237" depart="42.48">
        <route edges="0 1"/>
    </vehicle>
    <vehicle id="238" depart="42.66">
        <route edges="0 1"/>
    </vehicle>
    <vehicle id="239" depart="42.84">
        <route edges="0 1"/>
    </vehicle>
    <vehicle id="240" depart="43.02">
        <route edges="0 1"/>
    </vehicle>
    <vehicle id="241" depart="43.20">
        <route edges="0 1"/>
    </vehicle>
    <vehicle id="242" depart="43.38">
        <route edges="0 1"/>
    </vehicle>
    <vehicle id="243" depart="43.56">
        <route edges="0 1"/>
    </vehicle>
    <vehicle id="244" depart="43.74">
        <route edges="0 1"/>
    </vehicle>
    <vehicle id="245" depart="43.92">
        <route edges="0 1"/>
    </vehicle>
    <vehicle id="246" depart="44.10">
        <route edges="0 1"/>
    </vehicle>
    <vehicle id="247" depart="44.28">
        <route edges="0 1"/>
    </vehicle>
    <vehicle id="248" depart="44.46">
        <route edges="0 1"/>
    </vehicle>
    <vehicle id="249" depart="44.64">
        <route edges="0 1"/>
    </vehicle>
    <vehicle id="250" depart="44.82">
        <route edges="0 1"/>
    </vehicle>
    <vehicle id="251" depart="45.00">
        <route edges="0 1"/>
    </vehicle>
    <vehicle id="252" depart="45.18">
        <route edges="0 1"/>
    </vehicle>
    <vehicle id="253" depart="45.36">
        <route edges="0 1"/>
    </vehicle>
    <vehicle id="254" depart="45.54">
        <route edges="0 1"/>
    </vehicle>
    <vehicle id="255" depart="45.72">
        <route edges="0 1"/>
    </vehicle>
    <vehicle id="256" depart="45.90">
        <route edges="0 1"/>
    </vehicle>
    <vehicle id="257" depart="46.08">
        <route edges="0 1"/>
    </vehicle>
    <vehicle id="258" depart="46.26">
        <route edges="0 1"/>
    </vehicle>
    <vehicle id="259" depart="46.44">
        <route edges="0 1"/>
    </vehicle>
    <vehicle id="260" depart="46.62">
        <route edges="0 1"/>
    </vehicle>
    <vehicle id="261" depart="46.80">
        <route edges="0 1"/>
    </vehicle>
    <vehicle id="262" depart="46.98">
        <route edges="0 1"/>
    </vehicle>
    <vehicle id="263" depart="47.16">
        <route edges="0 1"/>
    </vehicle>
    <vehicle id="264" depart="47.34">
        <route edges="0 1"/>
    </vehicle>
    <vehicle id="265" depart="47.52">
        <route edges="0 1"/>
    </vehicle>
    <vehicle id="266" depart="47.70">
        <route edges="0 1"/>
    </vehicle>
    <vehicle id="267" depart="47.88">
        <route edges="0 1"/>
    </vehicle>
    <vehicle id="268" depart="48.06">
        <route edges="0 1"/>
    </vehicle>
    <vehicle id="269" depart="48.24">
        <route edges="0 1"/>
    </vehicle>
    <vehicle id="270" depart="48.42">
        <route edges="0 1"/>
    </vehicle>
    <vehicle id="271" depart="48.60">
        <route edges="0 1"/>
    </vehicle>
    <vehicle id="272" depart="48.78">
        <route edges="0 1"/>
    </vehicle>
    <vehicle id="273" depart="48.96">
        <route edges="0 1"/>
    </vehicle>
    <vehicle id="274" depart="49.14">
        <route edges="0 1"/>
    </vehicle>
    <vehicle id="275" depart="49.32">
        <route edges="0 1"/>
    </vehicle>
    <vehicle id="276" depart="49.50">
        <route edges="0 1"/>
    </vehicle>
    <vehicle id="277" depart="49.68">
        <route edges="0 1"/>
    </vehicle>
    <vehicle id="278" depart="49.86">
        <route edges="0 1"/>
    </vehicle>
    <vehicle id="279" depart="50.04">
        <route edges="0 1"/>
    </vehicle>
    <vehicle id="280" depart="50.22">
        <route edges="0 1"/>
    </vehicle>
    <vehicle id="281" depart="50.40">
        <route edges="0 1"/>
    </vehicle>
    <vehicle id="282" depart="50.58">
        <route edges="0 1"/>
    </vehicle>
    <vehicle id="283" depart="50.76">
        <route edges="0 1"/>
    </vehicle>
    <vehicle id="284" depart="50.94">
        <route edges="0 1"/>
    </vehicle>
    <vehicle id="285" depart="51.12">
        <route edges="0 1"/>
    </vehicle>
    <vehicle id="286" depart="51.30">
        <route edges="0 1"/>
    </vehicle>
    <vehicle id="287" depart="51.48">
        <route edges="0 1"/>
    </vehicle>
    <vehicle id="288" depart="51.66">
        <route edges="0 1"/>
    </vehicle>
    <vehicle id="289" depart="51.84">
        <route edges="0 1"/>
    </vehicle>
    <vehicle id="290" depart="52.02">
        <route edges="0 1"/>
    </vehicle>
    <vehicle id="291" depart="52.20">
        <route edges="0 1"/>
    </vehicle>
    <vehicle id="292" depart="52.38">
        <route edges="0 1"/>
    </vehicle>
    <vehicle id="293" depart="52.56">
        <route edges="0 1"/>
    </vehicle>
    <vehicle id="294" depart="52.74">
        <route edges="0 1"/>
    </vehicle>
    <vehicle id="295" depart="52.92">
        <route edges="0 1"/>
    </vehicle>
    <vehicle id="296" depart="53.10">
        <route edges="0 1"/>
    </vehicle>
    <vehicle id="297" depart="53.28">
        <route edges="0 1"/>
    </vehicle>
    <vehicle id="298" depart="53.46">
        <route edges="0 1"/>
    </vehicle>
    <vehicle id="299" depart="53.64">
        <route edges="0 1"/>
    </vehicle>
    <vehicle id="300" depart="53.82">
        <route edges="0 1"/>
    </vehicle>
    <vehicle id="301" depart="54.00">
        <route edges="0 1"/>
    </vehicle>
    <vehicle id="302" depart="54.18">
        <route edges="0 1"/>
    </vehicle>
    <vehicle id="303" depart="54.36">
        <route edges="0 1"/>
    </vehicle>
    <vehicle id="304" depart="54.54">
        <route edges="0 1"/>
    </vehicle>
    <vehicle id="305" depart="54.72">
        <route edges="0 1"/>
    </vehicle>
    <vehicle id="306" depart="54.90">
        <route edges="0 1"/>
    </vehicle>
    <vehicle id="307" depart="55.08">
        <route edges="0 1"/>
    </vehicle>
    <vehicle id="308" depart="55.26">
        <route edges="0 1"/>
    </vehicle>
    <vehicle id="309" depart="55.44">
        <route edges="0 1"/>
    </vehicle>
    <vehicle id="310" depart="55.62">
        <route edges="0 1"/>
    </vehicle>
    <vehicle id="311" depart="55.80">
        <route edges="0 1"/>
    </vehicle>
    <vehicle id="312" depart="55.98">
        <route edges="0 1"/>
    </vehicle>
    <vehicle id="313" depart="56.16">
        <route edges="0 1"/>
    </vehicle>
    <vehicle id="314" depart="56.34">
        <route edges="0 1"/>
    </vehicle>
    <vehicle id="315" depart="56.52">
        <route edges="0 1"/>
    </vehicle>
    <vehicle id="316" depart="56.70">
        <route edges="0 1"/>
    </vehicle>
    <vehicle id="317" depart="56.88">
        <route edges="0 1"/>
    </vehicle>
    <vehicle id="318" depart="57.06">
        <route edges="0 1"/>
    </vehicle>
    <vehicle id="319" depart="57.24">
        <route edges="0 1"/>
    </vehicle>
    <vehicle id="320" depart="57.42">
        <route edges="0 1"/>
    </vehicle>
    <vehicle id="321" depart="57.60">
        <route edges="0 1"/>
    </vehicle>
    <vehicle id="322" depart="57.78">
        <route edges="0 1"/>
    </vehicle>
    <vehicle id="323" depart="57.96">
        <route edges="0 1"/>
    </vehicle>
    <vehicle id="324" depart="58.14">
        <route edges="0 1"/>
    </vehicle>
    <vehicle id="325" depart="58.32">
        <route edges="0 1"/>
    </vehicle>
    <vehicle id="326" depart="58.50">
        <route edges="0 1"/>
    </vehicle>
    <vehicle id="327" depart="58.68">
        <route edges="0 1"/>
    </vehicle>
    <vehicle id="328" depart="58.86">
        <route edges="0 1"/>
    </vehicle>
    <vehicle id="329" depart="59.04">
        <route edges="0 1"/>
    </vehicle>
    <vehicle id="330" depart="59.22">
        <route edges="0 1"/>
    </vehicle>
    <vehicle id="331" depart="59.40">
        <route edges="0 1"/>
    </vehicle>
    <vehicle id="332" depart="59.58">
        <route edges="0 1"/>
    </vehicle>
    <vehicle id="333" depart="59.76">
        <route edges="0 1"/>
    </vehicle>
    <vehicle id="334" depart="59.94">
        <route edges="0 1"/>
    </vehicle>
    <vehicle id="335" depart="60.12">
        <route edges="0 1"/>
    </vehicle>
    <vehicle id="336" depart="60.30">
        <route edges="0 1"/>
    </vehicle>
    <vehicle id="337" depart="60.48">
        <route edges="0 1"/>
    </vehicle>
    <vehicle id="338" depart="60.66">
        <route edges="0 1"/>
    </vehicle>
    <vehicle id="339" depart="60.84">
        <route edges="0 1"/>
    </vehicle>
    <vehicle id="340" depart="61.02">
        <route edges="0 1"/>
    </vehicle>
    <vehicle id="341" depart="61.20">
        <route edges="0 1"/>
    </vehicle>
    <vehicle id="342" depart="61.38">
        <route edges="0 1"/>
    </vehicle>
    <vehicle id="343" depart="61.56">
        <route edges="0 1"/>
    </vehicle>
    <vehicle id="344" depart="61.74">
        <route edges="0 1"/>
    </vehicle>
    <vehicle id="345" depart="61.92">
        <route edges="0 1"/>
    </vehicle>
    <vehicle id="346" depart="62.10">
        <route edges="0 1"/>
    </vehicle>
    <vehicle id="347" depart="62.28">
        <route edges="0 1"/>
    </vehicle>
    <vehicle id="348" depart="62.46">
        <route edges="0 1"/>
    </vehicle>
    <vehicle id="349" depart="62.64">
        <route edges="0 1"/>
    </vehicle>
    <vehicle id="350" depart="62.82">
        <route edges="0 1"/>
    </vehicle>
    <vehicle id="351" depart="63.00">
        <route edges="0 1"/>
    </vehicle>
    <vehicle id="352" depart="63.18">
        <route edges="0 1"/>
    </vehicle>
    <vehicle id="353" depart="63.36">
        <route edges="0 1"/>
    </vehicle>
    <vehicle id="354" depart="63.54">
        <route edges="0 1"/>
    </vehicle>
    <vehicle id="355" depart="63.72">
        <route edges="0 1"/>
    </vehicle>
    <vehicle id="356" depart="63.90">
        <route edges="0 1"/>
    </vehicle>
    <vehicle id="357" depart="64.08">