<?xml version="1.0" encoding="UTF-8"?>

<!-- generated on 7/24/2018 11:54:41 AM by Netedit Version 0.32.0
<?xml version="1.0" encoding="UTF-8"?>

<configuration xmlns:xsi="http://www.w3.org/2001/XMLSchema-instance" xsi:noNamespaceSchemaLocation="http://sumo.dlr.de/xsd/netconvertConfiguration.xsd">

    <input>
        <sumo-net-file value="C:\Users\xdsp\ownCloud\fel\projects\summerjob\AgentDrive\data\nets\test_sda2\test_sda2.net.xml"/>
    </input>

    <output>
        <output-file value="C:\Users\xdsp\ownCloud\fel\projects\summerjob\AgentDrive\data\nets\test_sda2\test_sda2.net.xml"/>
    </output>

    <processing>
        <no-internal-links value="true"/>
        <no-turnarounds value="true"/>
        <offset.disable-normalization value="true"/>
        <lefthand value="false"/>
        <junctions.corner-detail value="0"/>
        <rectangular-lane-cut value="false"/>
        <walkingareas value="false"/>
    </processing>

</configuration>
-->

<net version="0.27" xmlns:xsi="http://www.w3.org/2001/XMLSchema-instance" xsi:noNamespaceSchemaLocation="http://sumo.dlr.de/xsd/net_file.xsd">

    <location netOffset="0.00,0.00" convBoundary="-100.00,100.00,100.00,100.10" origBoundary="-10000000000.00,-10000000000.00,10000000000.00,10000000000.00" projParameter="!"/>

    <edge id="gneE0" from="gneJ0" to="gneJ1" priority="1">
        <lane id="gneE0_0" index="0" speed="45.00" length="200.00" shape="-100.00,91.75 100.00,91.75"/>
        <lane id="gneE0_1" index="1" speed="45.00" length="200.00" shape="-100.00,95.05 100.00,95.05"/>
        <lane id="gneE0_2" index="2" speed="45.00" length="200.00" shape="-100.00,98.35 100.00,98.35"/>
    </edge>
    <edge id="gneE1" from="gneJ2" to="gneJ3" priority="1" shape="-100.00,100.00 -99.90,100.10">
        <lane id="gneE1_0" index="0" speed="13.89" length="0.28" shape="-98.83,98.83 -98.73,98.93"/>
    </edge>

    <junction id="gneJ0" type="dead_end" x="-100.00" y="100.00" incLanes="" intLanes="" shape="-100.00,99.95 -100.00,90.15"/>
    <junction id="gneJ1" type="dead_end" x="100.00" y="100.00" incLanes="gneE0_0 gneE0_1 gneE0_2" intLanes="" shape="100.00,90.15 100.00,99.95"/>
    <junction id="gneJ2" type="dead_end" x="-100.00" y="100.00" incLanes="" intLanes="" shape="-99.96,99.96 -97.70,97.70"/>
    <junction id="gneJ3" type="dead_end" x="-100.00" y="100.00" incLanes="gneE1_0" intLanes="" shape="-97.70,97.70 -99.96,99.96"/>

</net>
